4fnz_chainA
     RDKit          3D

  6  5  0  0  0  0  0  0  0  0999 V2000
    0.8504   23.6346   32.7207 O   0  0  0  0  0  0  0  0  0  0  0  0
   -0.2857   22.9372   32.2905 C   0  0  0  0  0  0  0  0  0  0  0  0
   -1.3709   23.4371   32.8851 F   0  0  0  0  0  0  0  0  0  0  0  0
   -0.3305   23.1950   30.9821 F   0  0  0  0  0  0  0  0  0  0  0  0
   -0.1590   21.6056   32.5215 F   0  0  0  0  0  0  0  0  0  0  0  0
    1.2022   23.4996   34.0210 R   0  0  0  0  0  1  0  0  0  0  0  0
  1  2  1  0
  2  3  1  0
  2  4  1  0
  2  5  1  0
  1  6  1  0
M  ISO  1   6  64
M  END
>  <kinase>  (1) 
ALK

>  <family>  (1) 
ALK

>  <group>  (1) 
TK

>  <complex_pdb>  (1) 
4fnz

>  <ligand_pdb>  (1) 
NZF

>  <alt>  (1) 
 

>  <chain>  (1) 
A

>  <atom.prop.subpocket>  (1) 
B2 B2 B2 B2 B2 B1

>  <atom.prop.environment>  (1) 
3 3 3 3 3 na

$$$$
4joa_altA_chainA
     RDKit          3D

 12 12  0  0  0  0  0  0  0  0999 V2000
    8.6096   18.9702   35.9932 F   0  0  0  0  0  0  0  0  0  0  0  0
    7.5607   19.7241   36.3682 C   0  0  0  0  0  0  0  0  0  0  0  0
    6.3353   19.1202   36.6460 C   0  0  0  0  0  0  0  0  0  0  0  0
    6.2313   18.0492   36.5537 H   0  0  0  0  0  0  0  0  0  0  0  0
    7.6968   21.1061   36.4726 C   0  0  0  0  0  0  0  0  0  0  0  0
    8.6446   21.5757   36.2548 H   0  0  0  0  0  0  0  0  0  0  0  0
    6.6063   21.8792   36.8587 C   0  0  0  0  0  0  0  0  0  0  0  0
    6.7084   22.9510   36.9431 H   0  0  0  0  0  0  0  0  0  0  0  0
    5.3810   21.2724   37.1371 C   0  0  0  0  0  0  0  0  0  0  0  0
    4.3362   22.0363   37.5058 F   0  0  0  0  0  0  0  0  0  0  0  0
    5.2430   19.8913   37.0425 C   0  0  0  0  0  0  0  0  0  0  0  0
    3.9153   19.2119   37.3203 R   0  0  0  0  0  1  0  0  0  0  0  0
  1  2  1  0
  2  3  2  0
  2  5  1  0
  3  4  1  0
  3 11  1  0
  5  6  1  0
  5  7  2  0
  7  8  1  0
  7  9  1  0
  9 10  1  0
  9 11  2  0
 11 12  1  0
M  ISO  1  12  11
M  END
>  <kinase>  (1) 
ALK

>  <family>  (1) 
ALK

>  <group>  (1) 
TK

>  <complex_pdb>  (1) 
4joa

>  <ligand_pdb>  (1) 
3DK

>  <alt>  (1) 
A

>  <chain>  (1) 
A

>  <atom.prop.subpocket>  (1) 
B2 B2 B2 B2 B2 B2 B2 B2 B2 B2 B2 GA

>  <atom.prop.environment>  (1) 
16 16 16 16 16 16 16 16 16 16 16 na

$$$$
3efw_chainA
     RDKit          3D

 21 21  0  0  0  0  0  0  0  0999 V2000
    8.5780   16.2688   35.5277 C   0  0  0  0  0  0  0  0  0  0  0  0
    8.3198   16.1383   36.5683 H   0  0  0  0  0  0  0  0  0  0  0  0
    9.7922   15.7799   35.0495 C   0  0  0  0  0  0  0  0  0  0  0  0
   10.4719   15.2804   35.7241 H   0  0  0  0  0  0  0  0  0  0  0  0
   10.1364   15.9308   33.7062 C   0  0  0  0  0  0  0  0  0  0  0  0
   11.0800   15.5484   33.3458 H   0  0  0  0  0  0  0  0  0  0  0  0
    8.0450   17.0645   33.3191 C   0  0  0  0  0  0  0  0  0  0  0  0
    7.3624   17.5586   32.6436 H   0  0  0  0  0  0  0  0  0  0  0  0
    4.7340   17.8842   36.4342 N   0  0  0  0  0  0  0  0  0  0  0  0
    4.3172   18.3111   35.6193 H   0  0  0  0  0  0  0  0  0  0  0  0
    5.9501   17.3321   36.3113 C   0  0  0  0  0  0  0  0  0  0  0  0
    6.5192   16.8103   37.2740 O   0  0  0  0  0  0  0  0  0  0  0  0
    6.4975   17.4043   35.0831 N   0  0  0  0  0  0  0  0  0  0  0  0
    5.9452   17.8752   34.3807 H   0  0  0  0  0  0  0  0  0  0  0  0
    7.6936   16.9258   34.6713 C   0  0  0  0  0  0  0  0  0  0  0  0
    9.2650   16.5747   32.8264 C   0  0  0  0  0  0  0  0  0  0  0  0
    9.6693   16.7373   31.3373 C   0  0  0  0  0  0  0  0  0  0  0  0
    8.6064   16.7602   30.5348 F   0  0  0  0  0  0  0  0  0  0  0  0
   10.3305   17.8881   31.1635 F   0  0  0  0  0  0  0  0  0  0  0  0
   10.4543   15.7099   30.9837 F   0  0  0  0  0  0  0  0  0  0  0  0
    4.0379   17.8988   37.5915 R   0  0  0  0  0  1  0  0  0  0  0  0
  1  2  1  0
  1  3  2  0
  1 15  1  0
  3  4  1  0
  3  5  1  0
  5  6  1  0
  5 16  2  0
  7  8  1  0
  7 15  2  0
  7 16  1  0
  9 10  1  0
  9 11  1  0
 11 12  2  0
 11 13  1  0
 13 14  1  0
 13 15  1  0
 16 17  1  0
 17 18  1  0
 17 19  1  0
 17 20  1  0
  9 21  1  0
M  ISO  1  21  44
M  END
>  <kinase>  (1) 
AurA

>  <family>  (1) 
Aur

>  <group>  (1) 
Other

>  <complex_pdb>  (1) 
3efw

>  <ligand_pdb>  (1) 
AK8

>  <alt>  (1) 
 

>  <chain>  (1) 
A

>  <atom.prop.subpocket>  (1) 
B2 B2 B2 B2 B2 B2 B2 B2 B2 B2 B2 B2 B2 B2 B2 B2 B2 B2 B2 B2 GA

>  <atom.prop.environment>  (1) 
16 16 16 16 16 16 16 16 5 5 1 1 5 5 16 16 8 8 8 8 na

$$$$
3m11_chainA
     RDKit          3D

 18 18  0  0  0  0  0  0  0  0999 V2000
    4.8309   18.5525   35.3540 N   0  0  0  0  0  0  0  0  0  0  0  0
    4.6742   19.3344   34.7342 H   0  0  0  0  0  0  0  0  0  0  0  0
    5.8624   17.7387   35.1491 C   0  0  0  0  0  0  0  0  0  0  0  0
    6.6436   18.0162   34.1093 N   0  0  0  0  0  0  0  0  0  0  0  0
    6.4384   18.8115   33.5215 H   0  0  0  0  0  0  0  0  0  0  0  0
    7.6948   17.2466   33.8432 C   0  0  0  0  0  0  0  0  0  0  0  0
    8.1236   17.0865   32.5301 C   0  0  0  0  0  0  0  0  0  0  0  0
    7.6029   17.5869   31.7270 H   0  0  0  0  0  0  0  0  0  0  0  0
    9.2227   16.2821   32.2514 C   0  0  0  0  0  0  0  0  0  0  0  0
    9.5567   16.1584   31.2318 H   0  0  0  0  0  0  0  0  0  0  0  0
    9.8918   15.6368   33.2853 C   0  0  0  0  0  0  0  0  0  0  0  0
   10.7450   15.0112   33.0686 H   0  0  0  0  0  0  0  0  0  0  0  0
    9.4629   15.7968   34.5975 C   0  0  0  0  0  0  0  0  0  0  0  0
    9.9826   15.2955   35.4006 H   0  0  0  0  0  0  0  0  0  0  0  0
    8.3649   16.6020   34.8758 C   0  0  0  0  0  0  0  0  0  0  0  0
    8.0321   16.7268   35.8956 H   0  0  0  0  0  0  0  0  0  0  0  0
    6.0824   16.7772   35.8841 O   0  0  0  0  0  0  0  0  0  0  0  0
    4.0049   18.3376   36.3749 R   0  0  0  0  0  1  0  0  0  0  0  0
  1  2  1  0
  1  3  1  0
  3  4  1  0
  3 17  2  0
  4  5  1  0
  4  6  1  0
  6  7  2  0
  6 15  1  0
  7  8  1  0
  7  9  1  0
  9 10  1  0
  9 11  2  0
 11 12  1  0
 11 13  1  0
 13 14  1  0
 13 15  2  0
 15 16  1  0
  1 18  1  0
M  ISO  1  18  43
M  END
>  <kinase>  (1) 
AurA

>  <family>  (1) 
Aur

>  <group>  (1) 
Other

>  <complex_pdb>  (1) 
3m11

>  <ligand_pdb>  (1) 
AKI

>  <alt>  (1) 
 

>  <chain>  (1) 
A

>  <atom.prop.subpocket>  (1) 
B2 B2 B2 B2 B2 B2 B2 B2 B2 B2 B2 B2 B2 B2 B2 B2 B2 GA

>  <atom.prop.environment>  (1) 
5 5 1 5 5 16 16 16 16 16 16 16 16 16 16 16 1 na

$$$$
4jbo_chainA
     RDKit          3D

 18 18  0  0  0  0  0  0  0  0999 V2000
    4.7945   18.4449   35.1981 N   0  0  0  0  0  0  0  0  0  0  0  0
    4.7577   19.3420   34.7356 H   0  0  0  0  0  0  0  0  0  0  0  0
    5.7399   17.5844   34.7878 C   0  0  0  0  0  0  0  0  0  0  0  0
    5.8984   16.4783   35.3032 O   0  0  0  0  0  0  0  0  0  0  0  0
    6.4989   18.0316   33.7738 N   0  0  0  0  0  0  0  0  0  0  0  0
    6.2996   18.9609   33.4321 H   0  0  0  0  0  0  0  0  0  0  0  0
    7.4979   17.3652   33.1683 C   0  0  0  0  0  0  0  0  0  0  0  0
    8.2577   18.0545   32.2218 C   0  0  0  0  0  0  0  0  0  0  0  0
    8.0311   19.0900   32.0146 H   0  0  0  0  0  0  0  0  0  0  0  0
    9.3011   17.4358   31.5393 C   0  0  0  0  0  0  0  0  0  0  0  0
    9.8807   17.9882   30.8144 H   0  0  0  0  0  0  0  0  0  0  0  0
    9.5910   16.1017   31.7979 C   0  0  0  0  0  0  0  0  0  0  0  0
   10.3994   15.6122   31.2751 H   0  0  0  0  0  0  0  0  0  0  0  0
    8.8370   15.3976   32.7326 C   0  0  0  0  0  0  0  0  0  0  0  0
    9.0624   14.3605   32.9326 H   0  0  0  0  0  0  0  0  0  0  0  0
    7.7920   16.0233   33.4126 C   0  0  0  0  0  0  0  0  0  0  0  0
    7.2083   15.4668   34.1309 H   0  0  0  0  0  0  0  0  0  0  0  0
    3.8921   18.2198   36.1697 R   0  0  0  0  0  1  0  0  0  0  0  0
  1  2  1  0
  1  3  1  0
  3  4  2  0
  3  5  1  0
  5  6  1  0
  5  7  1  0
  7  8  2  0
  7 16  1  0
  8  9  1  0
  8 10  1  0
 10 11  1  0
 10 12  2  0
 12 13  1  0
 12 14  1  0
 14 15  1  0
 14 16  2  0
 16 17  1  0
  1 18  1  0
M  ISO  1  18  55
M  END
>  <kinase>  (1) 
AurA

>  <family>  (1) 
Aur

>  <group>  (1) 
Other

>  <complex_pdb>  (1) 
4jbo

>  <ligand_pdb>  (1) 
WPH

>  <alt>  (1) 
 

>  <chain>  (1) 
A

>  <atom.prop.subpocket>  (1) 
B2 B2 B2 B2 B2 B2 B2 B2 B2 B2 B2 B2 B2 B2 B2 B2 B2 GA

>  <atom.prop.environment>  (1) 
5 5 1 1 5 5 16 16 16 16 16 16 16 16 16 16 16 na

$$$$
4jbp_chainA
     RDKit          3D

 18 18  0  0  0  0  0  0  0  0999 V2000
    4.8642   18.4400   35.1155 N   0  0  0  0  0  0  0  0  0  0  0  0
    4.7664   19.2782   34.5605 H   0  0  0  0  0  0  0  0  0  0  0  0
    5.8650   17.5960   34.8033 C   0  0  0  0  0  0  0  0  0  0  0  0
    6.0796   16.5723   35.4433 O   0  0  0  0  0  0  0  0  0  0  0  0
    6.6176   17.9377   33.7451 N   0  0  0  0  0  0  0  0  0  0  0  0
    6.3885   18.8005   33.2729 H   0  0  0  0  0  0  0  0  0  0  0  0
    7.6481   17.2281   33.2638 C   0  0  0  0  0  0  0  0  0  0  0  0
    8.2749   17.6910   32.1048 C   0  0  0  0  0  0  0  0  0  0  0  0
    7.9220   18.5984   31.6374 H   0  0  0  0  0  0  0  0  0  0  0  0
    9.3484   17.0027   31.5400 C   0  0  0  0  0  0  0  0  0  0  0  0
    9.8243   17.3785   30.6463 H   0  0  0  0  0  0  0  0  0  0  0  0
    9.8034   15.8289   32.1341 C   0  0  0  0  0  0  0  0  0  0  0  0
   10.6310   15.2860   31.7018 H   0  0  0  0  0  0  0  0  0  0  0  0
    9.1832   15.3586   33.2915 C   0  0  0  0  0  0  0  0  0  0  0  0
    9.5365   14.4506   33.7575 H   0  0  0  0  0  0  0  0  0  0  0  0
    8.1090   16.0526   33.8527 C   0  0  0  0  0  0  0  0  0  0  0  0
    7.6337   15.6765   34.7466 H   0  0  0  0  0  0  0  0  0  0  0  0
    3.9835   18.2452   36.1164 R   0  0  0  0  0  1  0  0  0  0  0  0
  1  2  1  0
  1  3  1  0
  3  4  2  0
  3  5  1  0
  5  6  1  0
  5  7  1  0
  7  8  2  0
  7 16  1  0
  8  9  1  0
  8 10  1  0
 10 11  1  0
 10 12  2  0
 12 13  1  0
 12 14  1  0
 14 15  1  0
 14 16  2  0
 16 17  1  0
  1 18  1  0
M  ISO  1  18  63
M  END
>  <kinase>  (1) 
AurA

>  <family>  (1) 
Aur

>  <group>  (1) 
Other

>  <complex_pdb>  (1) 
4jbp

>  <ligand_pdb>  (1) 
YPH

>  <alt>  (1) 
 

>  <chain>  (1) 
A

>  <atom.prop.subpocket>  (1) 
B2 B2 B2 B2 B2 B2 B2 B2 B2 B2 B2 B2 B2 B2 B2 B2 B2 GA

>  <atom.prop.environment>  (1) 
5 5 1 1 5 5 16 16 16 16 16 16 16 16 16 16 16 na

$$$$
4uyn_chainA
     RDKit          3D

 15 16  0  0  0  0  0  0  0  0999 V2000
    5.3976   22.0038   36.0281 C   0  0  0  0  0  0  0  0  0  0  0  0
    5.8409   23.0642   35.3510 N   0  0  0  0  0  0  0  0  0  0  0  0
    7.0946   22.7030   34.9956 C   0  0  0  0  0  0  0  0  0  0  0  0
    8.0670   23.3553   34.2503 C   0  0  0  0  0  0  0  0  0  0  0  0
    7.8861   24.3501   33.8708 H   0  0  0  0  0  0  0  0  0  0  0  0
    9.2784   22.7158   33.9960 C   0  0  0  0  0  0  0  0  0  0  0  0
   10.0307   23.2146   33.4030 H   0  0  0  0  0  0  0  0  0  0  0  0
    9.5313   21.4398   34.4978 C   0  0  0  0  0  0  0  0  0  0  0  0
   10.4732   20.9550   34.2877 H   0  0  0  0  0  0  0  0  0  0  0  0
    8.5779   20.7933   35.2644 C   0  0  0  0  0  0  0  0  0  0  0  0
    8.7793   19.8149   35.6751 H   0  0  0  0  0  0  0  0  0  0  0  0
    7.3530   21.4191   35.5011 C   0  0  0  0  0  0  0  0  0  0  0  0
    6.2625   20.9963   36.1580 N   0  0  0  0  0  0  0  0  0  0  0  0
    6.1274   20.1186   36.6392 H   0  0  0  0  0  0  0  0  0  0  0  0
    3.7909   21.8590   36.6814 R   0  0  0  0  0  1  0  0  0  0  0  0
  1  2  2  0
  1 13  1  0
  2  3  1  0
  3  4  2  0
  3 12  1  0
  4  5  1  0
  4  6  1  0
  6  7  1  0
  6  8  2  0
  8  9  1  0
  8 10  1  0
 10 11  1  0
 10 12  2  0
 12 13  1  0
 13 14  1  0
  1 15  1  0
M  ISO  1  15  41
M  END
>  <kinase>  (1) 
AurA

>  <family>  (1) 
Aur

>  <group>  (1) 
Other

>  <complex_pdb>  (1) 
4uyn

>  <ligand_pdb>  (1) 
Y3M

>  <alt>  (1) 
 

>  <chain>  (1) 
A

>  <atom.prop.subpocket>  (1) 
B2 B2 B2 B2 B2 B2 B2 B2 B2 B2 B2 B2 B2 B2 GA

>  <atom.prop.environment>  (1) 
14 14 14 14 14 14 14 14 14 14 14 14 14 14 na

$$$$
4uzd_chainB
     RDKit          3D

 15 16  0  0  0  0  0  0  0  0999 V2000
    9.5091   21.4603   35.2741 C   0  0  0  0  0  0  0  0  0  0  0  0
   10.5076   21.0707   35.1415 H   0  0  0  0  0  0  0  0  0  0  0  0
    9.1073   22.5875   34.5501 C   0  0  0  0  0  0  0  0  0  0  0  0
    9.7996   23.0520   33.8636 H   0  0  0  0  0  0  0  0  0  0  0  0
    7.8339   23.1190   34.6991 C   0  0  0  0  0  0  0  0  0  0  0  0
    7.5298   24.0049   34.1615 H   0  0  0  0  0  0  0  0  0  0  0  0
    8.6447   20.8364   36.1589 C   0  0  0  0  0  0  0  0  0  0  0  0
    8.9648   19.9804   36.7344 H   0  0  0  0  0  0  0  0  0  0  0  0
    7.3524   21.3403   36.2877 C   0  0  0  0  0  0  0  0  0  0  0  0
    6.9678   22.4696   35.5640 C   0  0  0  0  0  0  0  0  0  0  0  0
    5.6176   22.6257   35.8006 N   0  0  0  0  0  0  0  0  0  0  0  0
    5.2657   21.6040   36.5930 C   0  0  0  0  0  0  0  0  0  0  0  0
    6.2529   20.8116   36.9512 N   0  0  0  0  0  0  0  0  0  0  0  0
    6.2191   20.0090   37.5634 H   0  0  0  0  0  0  0  0  0  0  0  0
    3.9450   21.4823   36.8695 R   0  0  0  0  0  1  0  0  0  0  0  0
  1  2  1  0
  1  3  2  0
  1  7  1  0
  3  4  1  0
  3  5  1  0
  5  6  1  0
  5 10  2  0
  7  8  1  0
  7  9  2  0
  9 10  1  0
  9 13  1  0
 10 11  1  0
 11 12  2  0
 12 13  1  0
 13 14  1  0
 12 15  1  0
M  ISO  1  15  58
M  END
>  <kinase>  (1) 
AurA

>  <family>  (1) 
Aur

>  <group>  (1) 
Other

>  <complex_pdb>  (1) 
4uzd

>  <ligand_pdb>  (1) 
QMN

>  <alt>  (1) 
 

>  <chain>  (1) 
B

>  <atom.prop.subpocket>  (1) 
B2 B2 B2 B2 B2 B2 B2 B2 B2 B2 B2 B2 B2 B2 GA

>  <atom.prop.environment>  (1) 
14 14 14 14 14 14 14 14 14 14 14 14 14 14 na

$$$$
6hjj_altA_chainA
     RDKit          3D

 25 25  0  0  0  0  0  0  0  0999 V2000
    4.5268   18.3344   37.3216 C   0  0  0  0  0  0  0  0  0  0  0  0
    6.3462   17.8824   35.8500 C   0  0  0  0  0  0  0  0  0  0  0  0
    6.2304   17.0321   36.5220 H   0  0  0  0  0  0  0  0  0  0  0  0
    7.3099   18.3590   36.0298 H   0  0  0  0  0  0  0  0  0  0  0  0
    7.9246   16.3963   32.6744 C   0  0  0  0  0  0  0  0  0  0  0  0
    7.3734   16.9680   31.9425 H   0  0  0  0  0  0  0  0  0  0  0  0
    8.9961   15.6103   32.2839 C   0  0  0  0  0  0  0  0  0  0  0  0
    9.3920   15.5644   30.7699 C   0  0  0  0  0  0  0  0  0  0  0  0
    9.6932   14.8813   33.2176 C   0  0  0  0  0  0  0  0  0  0  0  0
    9.3321   14.9267   34.5627 C   0  0  0  0  0  0  0  0  0  0  0  0
    9.8820   14.3505   35.2921 H   0  0  0  0  0  0  0  0  0  0  0  0
    5.4040   18.7653   36.1636 C   0  0  0  0  0  0  0  0  0  0  0  0
    5.8878   19.7051   36.4295 H   0  0  0  0  0  0  0  0  0  0  0  0
    4.7703   18.9173   35.2899 H   0  0  0  0  0  0  0  0  0  0  0  0
    6.3692   17.3334   34.4204 C   0  0  0  0  0  0  0  0  0  0  0  0
    7.5701   16.4423   33.9959 C   0  0  0  0  0  0  0  0  0  0  0  0
   10.1393   14.5030   30.5499 F   0  0  0  0  0  0  0  0  0  0  0  0
   10.0660   16.6636   30.4705 F   0  0  0  0  0  0  0  0  0  0  0  0
    8.3033   15.4941   30.0492 F   0  0  0  0  0  0  0  0  0  0  0  0
   10.7103   14.1359   32.8381 F   0  0  0  0  0  0  0  0  0  0  0  0
    8.2767   15.7053   34.9547 C   0  0  0  0  0  0  0  0  0  0  0  0
    7.9910   15.7510   35.9953 H   0  0  0  0  0  0  0  0  0  0  0  0
    5.5039   17.5782   33.6509 O   0  0  0  0  0  0  0  0  0  0  0  0
    4.4405   17.1281   37.5736 O   0  0  0  0  0  0  0  0  0  0  0  0
    3.8054   19.3002   38.1080 R   0  0  0  0  0  1  0  0  0  0  0  0
  1 12  1  0
  1 24  2  0
  2  3  1  0
  2  4  1  0
  2 12  1  0
  2 15  1  0
  5  6  1  0
  5  7  2  0
  5 16  1  0
  7  8  1  0
  7  9  1  0
  8 17  1  0
  8 18  1  0
  8 19  1  0
  9 10  2  0
  9 20  1  0
 10 11  1  0
 10 21  1  0
 12 13  1  0
 12 14  1  0
 15 16  1  0
 15 23  2  0
 16 21  2  0
 21 22  1  0
  1 25  1  0
M  ISO  1  25  31
M  END
>  <kinase>  (1) 
AurA

>  <family>  (1) 
Aur

>  <group>  (1) 
Other

>  <complex_pdb>  (1) 
6hjj

>  <ligand_pdb>  (1) 
G7T

>  <alt>  (1) 
A

>  <chain>  (1) 
A

>  <atom.prop.subpocket>  (1) 
B2 B2 B2 B2 B2 B2 B2 B2 B2 B2 B2 B2 B2 B2 B2 B2 B2 B2 B2 B2 B2 B2 B2 B2 GA

>  <atom.prop.environment>  (1) 
6 6 6 6 16 16 16 8 16 16 16 6 6 6 6 16 8 8 8 16 16 16 6 6 na

$$$$
4fc0_chainB
     RDKit          3D

 12 12  0  0  0  0  0  0  0  0999 V2000
    2.1436   23.8322   32.4324 C   0  0  0  0  0  0  0  0  0  0  0  0
    3.1063   23.5010   31.4694 C   0  0  0  0  0  0  0  0  0  0  0  0
    4.0226   23.0127   31.7667 H   0  0  0  0  0  0  0  0  0  0  0  0
    2.8820   23.8000   30.1378 C   0  0  0  0  0  0  0  0  0  0  0  0
    3.6235   23.5419   29.3962 H   0  0  0  0  0  0  0  0  0  0  0  0
    1.7054   24.4317   29.7500 C   0  0  0  0  0  0  0  0  0  0  0  0
    1.5445   24.6764   28.7105 H   0  0  0  0  0  0  0  0  0  0  0  0
    0.7326   24.7506   30.6963 C   0  0  0  0  0  0  0  0  0  0  0  0
    0.9597   24.4657   32.0318 C   0  0  0  0  0  0  0  0  0  0  0  0
   -0.2770   24.8955   33.1766 Cl  0  0  0  0  0  0  0  0  0  0  0  0
   -0.4289   25.3994   30.3735 R   0  0  0  0  0  1  0  0  0  0  0  0
    2.3613   23.5215   33.8627 R   0  0  0  0  0  1  0  0  0  0  0  0
  1  2  2  0
  1  9  1  0
  2  3  1  0
  2  4  1  0
  4  5  1  0
  4  6  2  0
  6  7  1  0
  6  8  1  0
  8  9  2  0
  9 10  1  0
  8 11  1  0
  1 12  1  0
M  ISO  2  11  25  12  15
M  END
>  <kinase>  (1) 
BRAF

>  <family>  (1) 
RAF

>  <group>  (1) 
TKL

>  <complex_pdb>  (1) 
4fc0

>  <ligand_pdb>  (1) 
0T2

>  <alt>  (1) 
 

>  <chain>  (1) 
B

>  <atom.prop.subpocket>  (1) 
B2 B2 B2 B2 B2 B2 B2 B2 B2 B2 B1 GA

>  <atom.prop.environment>  (1) 
16 16 16 16 16 16 16 16 16 16 na na

$$$$
4ksp_chainB
     RDKit          3D

 12 12  0  0  0  0  0  0  0  0999 V2000
   -1.1406   23.4704   29.4493 C   0  0  0  0  0  0  0  0  0  0  0  0
   -2.0007   23.3123   28.8154 H   0  0  0  0  0  0  0  0  0  0  0  0
   -1.2050   24.3626   30.4987 C   0  0  0  0  0  0  0  0  0  0  0  0
    0.0329   22.7807   29.2157 C   0  0  0  0  0  0  0  0  0  0  0  0
    0.0890   22.0774   28.3980 H   0  0  0  0  0  0  0  0  0  0  0  0
    1.1352   22.9858   30.0223 C   0  0  0  0  0  0  0  0  0  0  0  0
    2.0521   22.4495   29.8274 H   0  0  0  0  0  0  0  0  0  0  0  0
   -0.1046   24.5614   31.3039 C   0  0  0  0  0  0  0  0  0  0  0  0
   -0.1628   25.2639   32.1222 H   0  0  0  0  0  0  0  0  0  0  0  0
    1.0686   23.8757   31.0788 C   0  0  0  0  0  0  0  0  0  0  0  0
    2.2582   24.1293   31.9661 R   0  0  0  0  0  1  0  0  0  0  0  0
   -2.4497   25.1232   30.7822 R   0  0  0  0  0  1  0  0  0  0  0  0
  1  2  1  0
  1  3  2  0
  1  4  1  0
  3  8  1  0
  4  5  1  0
  4  6  2  0
  6  7  1  0
  6 10  1  0
  8  9  1  0
  8 10  2  0
 10 11  1  0
  3 12  1  0
M  ISO  2  11  21  12  42
M  END
>  <kinase>  (1) 
BRAF

>  <family>  (1) 
RAF

>  <group>  (1) 
TKL

>  <complex_pdb>  (1) 
4ksp

>  <ligand_pdb>  (1) 
1SU

>  <alt>  (1) 
 

>  <chain>  (1) 
B

>  <atom.prop.subpocket>  (1) 
B2 B2 B2 B2 B2 B2 B2 B2 B2 B2 B1 B1

>  <atom.prop.environment>  (1) 
16 16 16 16 16 16 16 16 16 16 na na

$$$$
4ksq_chainB
     RDKit          3D

 14 14  0  0  0  0  0  0  0  0999 V2000
    2.4420   24.3109   32.5380 N   0  0  0  0  0  0  0  0  0  0  0  0
    3.3380   24.6981   32.2789 H   0  0  0  0  0  0  0  0  0  0  0  0
    1.4747   24.3024   31.5115 C   0  0  0  0  0  0  0  0  0  0  0  0
    1.9180   24.1574   30.1958 C   0  0  0  0  0  0  0  0  0  0  0  0
    2.9749   24.0536   29.9993 H   0  0  0  0  0  0  0  0  0  0  0  0
    1.0209   24.1444   29.1352 C   0  0  0  0  0  0  0  0  0  0  0  0
    1.3822   24.0196   28.1251 H   0  0  0  0  0  0  0  0  0  0  0  0
   -0.3356   24.2912   29.3707 C   0  0  0  0  0  0  0  0  0  0  0  0
   -1.0347   24.2791   28.5476 H   0  0  0  0  0  0  0  0  0  0  0  0
   -0.7920   24.4544   30.6746 C   0  0  0  0  0  0  0  0  0  0  0  0
    0.1063   24.4579   31.7394 C   0  0  0  0  0  0  0  0  0  0  0  0
   -0.2586   24.5819   32.7484 H   0  0  0  0  0  0  0  0  0  0  0  0
    2.3510   23.8751   33.8289 R   0  0  0  0  0  1  0  0  0  0  0  0
   -2.2709   24.6172   30.9446 R   0  0  0  0  0  1  0  0  0  0  0  0
  1  2  1  0
  1  3  1  0
  3  4  2  0
  3 11  1  0
  4  5  1  0
  4  6  1  0
  6  7  1  0
  6  8  2  0
  8  9  1  0
  8 10  1  0
 10 11  2  0
 11 12  1  0
  1 13  1  0
 10 14  1  0
M  ISO  2  13  38  14  52
M  END
>  <kinase>  (1) 
BRAF

>  <family>  (1) 
RAF

>  <group>  (1) 
TKL

>  <complex_pdb>  (1) 
4ksq

>  <ligand_pdb>  (1) 
1SW

>  <alt>  (1) 
 

>  <chain>  (1) 
B

>  <atom.prop.subpocket>  (1) 
B2 B2 B2 B2 B2 B2 B2 B2 B2 B2 B2 B2 GA B1

>  <atom.prop.environment>  (1) 
5 5 16 16 16 16 16 16 16 16 16 16 na na

$$$$
5fbo_altA_chainA
     RDKit          3D

 14 14  0  0  0  0  0  0  0  0999 V2000
    5.3862   20.3823   36.2602 C   0  0  0  0  0  0  0  0  0  0  0  0
    4.6536   20.4534   35.1352 N   0  0  0  0  0  0  0  0  0  0  0  0
    5.3068   20.6958   33.9882 C   0  0  0  0  0  0  0  0  0  0  0  0
    4.7348   20.7466   33.0735 H   0  0  0  0  0  0  0  0  0  0  0  0
    6.6681   20.8830   33.9181 C   0  0  0  0  0  0  0  0  0  0  0  0
    7.1399   21.0948   32.9699 H   0  0  0  0  0  0  0  0  0  0  0  0
    7.4301   20.7978   35.0738 C   0  0  0  0  0  0  0  0  0  0  0  0
    6.7786   20.5461   36.2795 C   0  0  0  0  0  0  0  0  0  0  0  0
    7.3316   20.4789   37.2047 H   0  0  0  0  0  0  0  0  0  0  0  0
    8.9139   20.9989   35.0450 C   0  0  0  0  0  0  0  0  0  0  0  0
    9.4279   21.4166   36.2080 F   0  0  0  0  0  0  0  0  0  0  0  0
    9.5773   19.8877   34.7335 F   0  0  0  0  0  0  0  0  0  0  0  0
    9.2904   21.9425   34.1929 F   0  0  0  0  0  0  0  0  0  0  0  0
    4.5875   20.1204   37.3848 R   0  0  0  0  0  1  0  0  0  0  0  0
  1  2  2  0
  1  8  1  0
  2  3  1  0
  3  4  1  0
  3  5  2  0
  5  6  1  0
  5  7  1  0
  7  8  2  0
  7 10  1  0
  8  9  1  0
 10 11  1  0
 10 12  1  0
 10 13  1  0
  1 14  1  0
M  ISO  1  14  40
M  END
>  <kinase>  (1) 
BTK

>  <family>  (1) 
Tec

>  <group>  (1) 
TK

>  <complex_pdb>  (1) 
5fbo

>  <ligand_pdb>  (1) 
5WH

>  <alt>  (1) 
A

>  <chain>  (1) 
A

>  <atom.prop.subpocket>  (1) 
B2 B2 B2 B2 B2 B2 B2 B2 B2 B2 B2 B2 B2 GA

>  <atom.prop.environment>  (1) 
16 16 16 16 16 16 16 16 16 8 8 8 8 na

$$$$
4nj3_altA_chainA
     RDKit          3D

  4  3  0  0  0  0  0  0  0  0999 V2000
    5.2759   21.1980   33.3776 C   0  0  0  0  0  0  0  0  0  0  0  0
    6.5095   21.0946   33.6111 O   0  0  0  0  0  0  0  0  0  0  0  0
    4.8474   21.4095   32.2108 O   0  0  0  0  0  0  0  0  0  0  0  0
    4.3032   21.0953   34.5344 R   0  0  0  0  0  1  0  0  0  0  0  0
  1  2  1  0
  1  3  2  0
  1  4  1  0
M  CHG  1   2  -1
M  ISO  1   4   4
M  END
>  <kinase>  (1) 
CDK2

>  <family>  (1) 
CDK

>  <group>  (1) 
CMGC

>  <complex_pdb>  (1) 
4nj3

>  <ligand_pdb>  (1) 
2KD

>  <alt>  (1) 
A

>  <chain>  (1) 
A

>  <atom.prop.subpocket>  (1) 
B2 B2 B2 X-B1

>  <atom.prop.environment>  (1) 
6 6 6 na

$$$$
5dls_chainA
     RDKit          3D

 15 15  0  0  0  0  0  0  0  0999 V2000
    4.5680   15.6439   36.6283 C   0  0  0  0  0  0  0  0  0  0  0  0
    4.4347   15.4282   35.5682 H   0  0  0  0  0  0  0  0  0  0  0  0
    3.9178   14.9954   37.2156 H   0  0  0  0  0  0  0  0  0  0  0  0
    6.0219   15.4053   37.0218 C   0  0  0  0  0  0  0  0  0  0  0  0
    6.3666   15.3581   38.3931 C   0  0  0  0  0  0  0  0  0  0  0  0
    5.5975   15.4767   39.1420 H   0  0  0  0  0  0  0  0  0  0  0  0
    7.7022   15.1581   38.7910 C   0  0  0  0  0  0  0  0  0  0  0  0
    7.9672   15.1210   39.8374 H   0  0  0  0  0  0  0  0  0  0  0  0
    8.6801   15.0081   37.7980 C   0  0  0  0  0  0  0  0  0  0  0  0
    9.7102   14.8612   38.0875 H   0  0  0  0  0  0  0  0  0  0  0  0
    8.3454   15.0454   36.4275 C   0  0  0  0  0  0  0  0  0  0  0  0
    9.1150   14.9185   35.6806 H   0  0  0  0  0  0  0  0  0  0  0  0
    7.0132   15.2473   36.0343 C   0  0  0  0  0  0  0  0  0  0  0  0
    6.7516   15.2811   34.9870 H   0  0  0  0  0  0  0  0  0  0  0  0
    4.2339   17.0492   36.8927 R   0  0  0  0  0  1  0  0  0  0  0  0
  1  2  1  0
  1  3  1  0
  1  4  1  0
  4  5  2  0
  4 13  1  0
  5  6  1  0
  5  7  1  0
  7  8  1  0
  7  9  2  0
  9 10  1  0
  9 11  1  0
 11 12  1  0
 11 13  2  0
 13 14  1  0
  1 15  1  0
M  ISO  1  15  60
M  END
>  <kinase>  (1) 
CHK1

>  <family>  (1) 
CAMKL

>  <group>  (1) 
CAMK

>  <complex_pdb>  (1) 
5dls

>  <ligand_pdb>  (1) 
5CV

>  <alt>  (1) 
 

>  <chain>  (1) 
A

>  <atom.prop.subpocket>  (1) 
B2 B2 B2 B2 B2 B2 B2 B2 B2 B2 B2 B2 B2 B2 GA

>  <atom.prop.environment>  (1) 
8 8 8 16 16 16 16 16 16 16 16 16 16 16 na

$$$$
6bku_chainA
     RDKit          3D

  4  3  0  0  0  0  0  0  0  0999 V2000
    4.5833   18.2047   36.3757 C   0  0  0  0  0  0  0  0  0  0  0  0
    4.8658   19.0123   35.4612 O   0  0  0  0  0  0  0  0  0  0  0  0
    5.0137   17.0418   36.4354 O   0  0  0  0  0  0  0  0  0  0  0  0
    3.7311   18.7105   37.5154 R   0  0  0  0  0  1  0  0  0  0  0  0
  1  2  1  0
  1  3  2  0
  1  4  1  0
M  CHG  1   2  -1
M  ISO  1   4  11
M  END
>  <kinase>  (1) 
CaMKK2

>  <family>  (1) 
CAMKK

>  <group>  (1) 
Other

>  <complex_pdb>  (1) 
6bku

>  <ligand_pdb>  (1) 
DXV

>  <alt>  (1) 
 

>  <chain>  (1) 
A

>  <atom.prop.subpocket>  (1) 
B2 B2 B2 GA

>  <atom.prop.environment>  (1) 
6 6 6 na

$$$$
3w2o_altB_chainA
     RDKit          3D

 15 15  0  0  0  0  0  0  0  0999 V2000
    6.6079   22.0083   37.3160 C   0  0  0  0  0  0  0  0  0  0  0  0
    6.0781   22.9251   37.5286 H   0  0  0  0  0  0  0  0  0  0  0  0
    7.9743   19.6271   36.7493 C   0  0  0  0  0  0  0  0  0  0  0  0
    7.5289   19.9011   38.0462 C   0  0  0  0  0  0  0  0  0  0  0  0
    7.7203   19.1887   38.8350 H   0  0  0  0  0  0  0  0  0  0  0  0
    8.7186   18.3358   36.4636 C   0  0  0  0  0  0  0  0  0  0  0  0
    8.2218   17.3250   37.1775 F   0  0  0  0  0  0  0  0  0  0  0  0
    8.6549   18.0388   35.1681 F   0  0  0  0  0  0  0  0  0  0  0  0
    9.9912   18.4934   36.7935 F   0  0  0  0  0  0  0  0  0  0  0  0
    7.7412   20.5669   35.7388 C   0  0  0  0  0  0  0  0  0  0  0  0
    8.0913   20.3740   34.7355 H   0  0  0  0  0  0  0  0  0  0  0  0
    7.0591   21.7522   36.0196 C   0  0  0  0  0  0  0  0  0  0  0  0
    6.8803   22.4712   35.2338 H   0  0  0  0  0  0  0  0  0  0  0  0
    6.8379   21.0858   38.3394 C   0  0  0  0  0  0  0  0  0  0  0  0
    6.4030   21.3490   39.6308 R   0  0  0  0  0  1  0  0  0  0  0  0
  1  2  1  0
  1 12  2  0
  1 14  1  0
  3  4  1  0
  3  6  1  0
  3 10  2  0
  4  5  1  0
  4 14  2  0
  6  7  1  0
  6  8  1  0
  6  9  1  0
 10 11  1  0
 10 12  1  0
 12 13  1  0
 14 15  1  0
M  ISO  1  15  36
M  END
>  <kinase>  (1) 
EGFR

>  <family>  (1) 
EGFR

>  <group>  (1) 
TK

>  <complex_pdb>  (1) 
3w2o

>  <ligand_pdb>  (1) 
03P

>  <alt>  (1) 
B

>  <chain>  (1) 
A

>  <atom.prop.subpocket>  (1) 
B2 B2 B2 B2 B2 B2 B2 B2 B2 B2 B2 B2 B2 B2 GA

>  <atom.prop.environment>  (1) 
16 16 16 16 16 8 8 8 8 16 16 16 16 16 na

$$$$
3w2r_altA_chainA
     RDKit          3D

 24 24  0  0  0  0  0  0  0  0999 V2000
    7.4978   21.0282   32.6329 C   0  0  0  0  0  0  0  0  0  0  0  0
   12.0253   20.7565   29.7756 C   0  0  0  0  0  0  0  0  0  0  0  0
   11.9731   21.6450   29.1463 H   0  0  0  0  0  0  0  0  0  0  0  0
   12.9931   20.2731   29.6422 H   0  0  0  0  0  0  0  0  0  0  0  0
   10.9353   19.8004   29.3722 C   0  0  0  0  0  0  0  0  0  0  0  0
   11.0200   18.8828   29.9545 H   0  0  0  0  0  0  0  0  0  0  0  0
   11.0276   19.5673   28.3114 H   0  0  0  0  0  0  0  0  0  0  0  0
   11.8669   21.1688   31.2418 C   0  0  0  0  0  0  0  0  0  0  0  0
   12.6367   21.8987   31.4923 H   0  0  0  0  0  0  0  0  0  0  0  0
   11.9813   20.2885   31.8743 H   0  0  0  0  0  0  0  0  0  0  0  0
    9.5890   20.4476   29.6356 C   0  0  0  0  0  0  0  0  0  0  0  0
    8.7961   19.7620   29.3365 H   0  0  0  0  0  0  0  0  0  0  0  0
    9.5126   21.3669   29.0550 H   0  0  0  0  0  0  0  0  0  0  0  0
   10.5022   21.7824   31.4873 C   0  0  0  0  0  0  0  0  0  0  0  0
   10.3891   22.6800   30.8793 H   0  0  0  0  0  0  0  0  0  0  0  0
   10.4012   22.0422   32.5410 H   0  0  0  0  0  0  0  0  0  0  0  0
    9.4392   20.7727   31.1075 C   0  0  0  0  0  0  0  0  0  0  0  0
    9.5820   19.8711   31.7032 H   0  0  0  0  0  0  0  0  0  0  0  0
    6.2098   21.5314   32.6472 N   0  0  0  0  0  0  0  0  0  0  0  0
    5.8489   21.8323   31.7532 H   0  0  0  0  0  0  0  0  0  0  0  0
    8.0976   21.2404   31.4118 N   0  0  0  0  0  0  0  0  0  0  0  0
    7.5849   21.7408   30.6998 H   0  0  0  0  0  0  0  0  0  0  0  0
    8.0401   20.3936   33.5209 O   0  0  0  0  0  0  0  0  0  0  0  0
    5.3324   21.6812   33.7401 R   0  0  0  0  0  1  0  0  0  0  0  0
  1 19  1  0
  1 21  1  0
  1 23  2  0
  2  3  1  0
  2  4  1  0
  2  5  1  0
  2  8  1  0
  5  6  1  0
  5  7  1  0
  5 11  1  0
  8  9  1  0
  8 10  1  0
  8 14  1  0
 11 12  1  0
 11 13  1  0
 11 17  1  0
 14 15  1  0
 14 16  1  0
 14 17  1  0
 17 18  1  0
 17 21  1  0
 19 20  1  0
 21 22  1  0
 19 24  1  0
M  ISO  1  24  22
M  END
>  <kinase>  (1) 
EGFR

>  <family>  (1) 
EGFR

>  <group>  (1) 
TK

>  <complex_pdb>  (1) 
3w2r

>  <ligand_pdb>  (1) 
W2R

>  <alt>  (1) 
A

>  <chain>  (1) 
A

>  <atom.prop.subpocket>  (1) 
B2 B2 B2 B2 B2 B2 B2 B2 B2 B2 B2 B2 B2 B2 B2 B2 B2 B2 B2 B2 B2 B2 B2 B1

>  <atom.prop.environment>  (1) 
1 15 15 15 15 15 15 15 15 15 15 15 15 15 15 15 15 15 5 5 5 5 1 na

$$$$
3w2s_altA_chainA
     RDKit          3D

 24 24  0  0  0  0  0  0  0  0999 V2000
    5.2237   19.3104   33.6329 C   0  0  0  0  0  0  0  0  0  0  0  0
    7.9932   15.6110   31.0654 C   0  0  0  0  0  0  0  0  0  0  0  0
    8.3937   14.5974   31.0498 H   0  0  0  0  0  0  0  0  0  0  0  0
    8.5093   16.2171   30.3208 H   0  0  0  0  0  0  0  0  0  0  0  0
    8.2206   16.2105   32.4333 C   0  0  0  0  0  0  0  0  0  0  0  0
    9.2922   16.2881   32.6167 H   0  0  0  0  0  0  0  0  0  0  0  0
    7.7688   15.5652   33.1867 H   0  0  0  0  0  0  0  0  0  0  0  0
    6.5173   15.5650   30.7291 C   0  0  0  0  0  0  0  0  0  0  0  0
    6.0173   14.8786   31.4125 H   0  0  0  0  0  0  0  0  0  0  0  0
    6.3959   15.2111   29.7053 H   0  0  0  0  0  0  0  0  0  0  0  0
    7.5977   17.5930   32.5218 C   0  0  0  0  0  0  0  0  0  0  0  0
    8.0569   18.2472   31.7808 H   0  0  0  0  0  0  0  0  0  0  0  0
    7.7606   18.0025   33.5187 H   0  0  0  0  0  0  0  0  0  0  0  0
    5.8875   16.9379   30.8569 C   0  0  0  0  0  0  0  0  0  0  0  0
    4.8173   16.8618   30.6649 H   0  0  0  0  0  0  0  0  0  0  0  0
    6.3404   17.6105   30.1285 H   0  0  0  0  0  0  0  0  0  0  0  0
    6.1076   17.4905   32.2533 C   0  0  0  0  0  0  0  0  0  0  0  0
    5.6897   16.8191   33.0034 H   0  0  0  0  0  0  0  0  0  0  0  0
    4.6781   20.5684   33.4847 N   0  0  0  0  0  0  0  0  0  0  0  0
    4.6435   20.9714   32.5592 H   0  0  0  0  0  0  0  0  0  0  0  0
    5.4156   18.7524   32.3976 N   0  0  0  0  0  0  0  0  0  0  0  0
    5.0695   19.2280   31.5765 H   0  0  0  0  0  0  0  0  0  0  0  0
    5.5346   18.7647   34.6931 O   0  0  0  0  0  0  0  0  0  0  0  0
    4.1728   21.3089   34.5491 R   0  0  0  0  0  1  0  0  0  0  0  0
  1 19  1  0
  1 21  1  0
  1 23  2  0
  2  3  1  0
  2  4  1  0
  2  5  1  0
  2  8  1  0
  5  6  1  0
  5  7  1  0
  5 11  1  0
  8  9  1  0
  8 10  1  0
  8 14  1  0
 11 12  1  0
 11 13  1  0
 11 17  1  0
 14 15  1  0
 14 16  1  0
 14 17  1  0
 17 18  1  0
 17 21  1  0
 19 20  1  0
 21 22  1  0
 19 24  1  0
M  ISO  1  24  22
M  END
>  <kinase>  (1) 
EGFR

>  <family>  (1) 
EGFR

>  <group>  (1) 
TK

>  <complex_pdb>  (1) 
3w2s

>  <ligand_pdb>  (1) 
W2R

>  <alt>  (1) 
A

>  <chain>  (1) 
A

>  <atom.prop.subpocket>  (1) 
B2 B2 B2 B2 B2 B2 B2 B2 B2 B2 B2 B2 B2 B2 B2 B2 B2 B2 B2 B2 B2 B2 B2 B1

>  <atom.prop.environment>  (1) 
1 15 15 15 15 15 15 15 15 15 15 15 15 15 15 15 15 15 5 5 5 5 1 na

$$$$
4qtb_altB_chainA
     RDKit          3D

 31 32  0  0  0  0  0  0  0  0999 V2000
    5.4230   18.4645   34.8847 C   0  0  0  0  0  0  0  0  0  0  0  0
    4.8174   19.2288   34.3977 H   0  0  0  0  0  0  0  0  0  0  0  0
    5.3923   17.5473   34.2966 H   0  0  0  0  0  0  0  0  0  0  0  0
    6.8562   18.9534   34.9042 C   0  0  0  0  0  0  0  0  0  0  0  0
    7.3352   19.3764   35.9453 O   0  0  0  0  0  0  0  0  0  0  0  0
    7.5323   18.9115   33.7421 N   0  0  0  0  0  0  0  0  0  0  0  0
    7.1566   18.1577   32.5405 C   0  0  0  0  0  0  0  0  0  0  0  0
    7.3894   18.7479   31.6541 H   0  0  0  0  0  0  0  0  0  0  0  0
    6.0878   17.9448   32.5648 H   0  0  0  0  0  0  0  0  0  0  0  0
    7.9290   16.8567   32.4972 C   0  0  0  0  0  0  0  0  0  0  0  0
    7.7472   16.3704   31.5388 H   0  0  0  0  0  0  0  0  0  0  0  0
    7.5795   16.2121   33.3037 H   0  0  0  0  0  0  0  0  0  0  0  0
    9.3743   17.0734   32.6539 N   0  0  0  0  0  0  0  0  0  0  0  0
    9.7416   18.0201   33.7170 C   0  0  0  0  0  0  0  0  0  0  0  0
   10.7965   18.2741   33.6134 H   0  0  0  0  0  0  0  0  0  0  0  0
    9.5755   17.5455   34.6841 H   0  0  0  0  0  0  0  0  0  0  0  0
    8.9341   19.2748   33.6500 C   0  0  0  0  0  0  0  0  0  0  0  0
    9.2012   19.9313   34.4781 H   0  0  0  0  0  0  0  0  0  0  0  0
    9.1224   19.7858   32.7058 H   0  0  0  0  0  0  0  0  0  0  0  0
   10.1102   15.8563   32.6062 C   0  0  0  0  0  0  0  0  0  0  0  0
    9.4821   14.7023   32.1619 C   0  0  0  0  0  0  0  0  0  0  0  0
    8.4552   14.7526   31.8313 H   0  0  0  0  0  0  0  0  0  0  0  0
   10.1444   13.4885   32.1335 C   0  0  0  0  0  0  0  0  0  0  0  0
    9.6240   12.6088   31.7847 H   0  0  0  0  0  0  0  0  0  0  0  0
   11.4537   13.3811   32.5414 C   0  0  0  0  0  0  0  0  0  0  0  0
   12.1111   14.5446   33.0000 C   0  0  0  0  0  0  0  0  0  0  0  0
   13.1353   14.4781   33.3361 H   0  0  0  0  0  0  0  0  0  0  0  0
   11.4539   15.7887   33.0264 C   0  0  0  0  0  0  0  0  0  0  0  0
   11.9699   16.6759   33.3627 H   0  0  0  0  0  0  0  0  0  0  0  0
    4.8442   18.1914   36.1364 R   0  0  0  0  0  1  0  0  0  0  0  0
   12.0975   12.0232   32.5982 R   0  0  0  0  0  1  0  0  0  0  0  0
  1  2  1  0
  1  3  1  0
  1  4  1  0
  4  5  2  0
  4  6  1  0
  6  7  1  0
  6 17  1  0
  7  8  1  0
  7  9  1  0
  7 10  1  0
 10 11  1  0
 10 12  1  0
 10 13  1  0
 13 14  1  0
 13 20  1  0
 14 15  1  0
 14 16  1  0
 14 17  1  0
 17 18  1  0
 17 19  1  0
 20 21  2  0
 20 28  1  0
 21 22  1  0
 21 23  1  0
 23 24  1  0
 23 25  2  0
 25 26  1  0
 26 27  1  0
 26 28  2  0
 28 29  1  0
  1 30  1  0
 25 31  1  0
M  ISO  2  30  35  31  68
M  END
>  <kinase>  (1) 
Erk1

>  <family>  (1) 
MAPK

>  <group>  (1) 
CMGC

>  <complex_pdb>  (1) 
4qtb

>  <ligand_pdb>  (1) 
38Z

>  <alt>  (1) 
B

>  <chain>  (1) 
A

>  <atom.prop.subpocket>  (1) 
B2 B2 B2 B2 B2 B2 B2 B2 B2 B2 B2 B2 B2 B2 B2 B2 B2 B2 B2 B2 B2 B2 B2 B2 B2 B2 B2 B2 B2 GA X-B2

>  <atom.prop.environment>  (1) 
4 4 4 4 4 5 5 5 5 5 5 5 5 5 5 5 5 5 5 16 16 16 16 16 16 16 16 16 16 na na

$$$$
4fv2_altB_chainA
     RDKit          3D

 20 21  0  0  0  0  0  0  0  0999 V2000
    3.1888   16.6635   37.0363 C   0  0  0  0  0  0  0  0  0  0  0  0
    3.2740   17.3394   36.1854 H   0  0  0  0  0  0  0  0  0  0  0  0
    2.5277   15.8361   36.7784 H   0  0  0  0  0  0  0  0  0  0  0  0
    4.5567   16.1021   37.3346 C   0  0  0  0  0  0  0  0  0  0  0  0
    4.8896   15.6341   38.6115 C   0  0  0  0  0  0  0  0  0  0  0  0
    4.1572   15.6940   39.4029 H   0  0  0  0  0  0  0  0  0  0  0  0
    6.1385   15.0952   38.8835 C   0  0  0  0  0  0  0  0  0  0  0  0
    6.3868   14.7466   39.8751 H   0  0  0  0  0  0  0  0  0  0  0  0
    7.0603   15.0154   37.8505 C   0  0  0  0  0  0  0  0  0  0  0  0
    8.3283   14.4831   37.8789 O   0  0  0  0  0  0  0  0  0  0  0  0
    8.9402   14.6098   36.5635 C   0  0  0  0  0  0  0  0  0  0  0  0
    9.2300   13.6266   36.1928 H   0  0  0  0  0  0  0  0  0  0  0  0
    9.8207   15.2494   36.6240 H   0  0  0  0  0  0  0  0  0  0  0  0
    7.9098   15.2330   35.6298 C   0  0  0  0  0  0  0  0  0  0  0  0
    7.6295   14.5482   34.8294 H   0  0  0  0  0  0  0  0  0  0  0  0
    8.2729   16.1661   35.1991 H   0  0  0  0  0  0  0  0  0  0  0  0
    6.7656   15.4710   36.5795 C   0  0  0  0  0  0  0  0  0  0  0  0
    5.5179   16.0204   36.3299 C   0  0  0  0  0  0  0  0  0  0  0  0
    5.2875   16.3906   35.3418 H   0  0  0  0  0  0  0  0  0  0  0  0
    2.5938   17.3959   38.1442 R   0  0  0  0  0  1  0  0  0  0  0  0
  1  2  1  0
  1  3  1  0
  1  4  1  0
  4  5  2  0
  4 18  1  0
  5  6  1  0
  5  7  1  0
  7  8  1  0
  7  9  2  0
  9 10  1  0
  9 17  1  0
 10 11  1  0
 11 12  1  0
 11 13  1  0
 11 14  1  0
 14 15  1  0
 14 16  1  0
 14 17  1  0
 17 18  2  0
 18 19  1  0
  1 20  1  0
M  ISO  1  20   2
M  END
>  <kinase>  (1) 
Erk2

>  <family>  (1) 
MAPK

>  <group>  (1) 
CMGC

>  <complex_pdb>  (1) 
4fv2

>  <ligand_pdb>  (1) 
EK5

>  <alt>  (1) 
B

>  <chain>  (1) 
A

>  <atom.prop.subpocket>  (1) 
B2 B2 B2 B2 B2 B2 B2 B2 B2 B2 B2 B2 B2 B2 B2 B2 B2 B2 B2 GA

>  <atom.prop.environment>  (1) 
8 8 8 16 16 16 16 16 16 16 16 16 16 16 16 16 16 16 16 na

$$$$
4g6o_chainA
     RDKit          3D

 20 21  0  0  0  0  0  0  0  0999 V2000
    3.5396   16.8237   36.7078 C   0  0  0  0  0  0  0  0  0  0  0  0
    3.4175   17.5683   35.9211 H   0  0  0  0  0  0  0  0  0  0  0  0
    2.9075   15.9619   36.4936 H   0  0  0  0  0  0  0  0  0  0  0  0
    4.9756   16.3701   36.7143 C   0  0  0  0  0  0  0  0  0  0  0  0
    5.7505   16.4481   35.5556 C   0  0  0  0  0  0  0  0  0  0  0  0
    5.3057   16.8300   34.6486 H   0  0  0  0  0  0  0  0  0  0  0  0
    7.0778   16.0468   35.5418 C   0  0  0  0  0  0  0  0  0  0  0  0
    7.6626   16.0973   34.6352 H   0  0  0  0  0  0  0  0  0  0  0  0
    7.6334   15.5799   36.7202 C   0  0  0  0  0  0  0  0  0  0  0  0
    8.9095   15.1135   36.9286 O   0  0  0  0  0  0  0  0  0  0  0  0
    9.0636   14.7447   38.3258 C   0  0  0  0  0  0  0  0  0  0  0  0
    9.8667   15.3282   38.7760 H   0  0  0  0  0  0  0  0  0  0  0  0
    9.2977   13.6831   38.4045 H   0  0  0  0  0  0  0  0  0  0  0  0
    7.7485   15.0385   39.0385 C   0  0  0  0  0  0  0  0  0  0  0  0
    7.8653   15.8198   39.7895 H   0  0  0  0  0  0  0  0  0  0  0  0
    7.3371   14.1439   39.5059 H   0  0  0  0  0  0  0  0  0  0  0  0
    6.8997   15.5010   37.8866 C   0  0  0  0  0  0  0  0  0  0  0  0
    5.5680   15.8813   37.8752 C   0  0  0  0  0  0  0  0  0  0  0  0
    4.9818   15.7974   38.7784 H   0  0  0  0  0  0  0  0  0  0  0  0
    3.1055   17.4102   37.9667 R   0  0  0  0  0  1  0  0  0  0  0  0
  1  2  1  0
  1  3  1  0
  1  4  1  0
  4  5  2  0
  4 18  1  0
  5  6  1  0
  5  7  1  0
  7  8  1  0
  7  9  2  0
  9 10  1  0
  9 17  1  0
 10 11  1  0
 11 12  1  0
 11 13  1  0
 11 14  1  0
 14 15  1  0
 14 16  1  0
 14 17  1  0
 17 18  2  0
 18 19  1  0
  1 20  1  0
M  ISO  1  20   2
M  END
>  <kinase>  (1) 
Erk2

>  <family>  (1) 
MAPK

>  <group>  (1) 
CMGC

>  <complex_pdb>  (1) 
4g6o

>  <ligand_pdb>  (1) 
E28

>  <alt>  (1) 
 

>  <chain>  (1) 
A

>  <atom.prop.subpocket>  (1) 
B2 B2 B2 B2 B2 B2 B2 B2 B2 B2 B2 B2 B2 B2 B2 B2 B2 B2 B2 GA

>  <atom.prop.environment>  (1) 
8 8 8 16 16 16 16 16 16 16 16 16 16 16 16 16 16 16 16 na

$$$$
4qta_altB_chainA
     RDKit          3D

 31 32  0  0  0  0  0  0  0  0999 V2000
    5.4276   18.0799   35.0646 C   0  0  0  0  0  0  0  0  0  0  0  0
    4.8077   18.7695   34.4915 H   0  0  0  0  0  0  0  0  0  0  0  0
    5.4723   17.1193   34.5513 H   0  0  0  0  0  0  0  0  0  0  0  0
    6.8152   18.6411   35.1285 C   0  0  0  0  0  0  0  0  0  0  0  0
    7.2899   19.0094   36.1777 O   0  0  0  0  0  0  0  0  0  0  0  0
    7.5197   18.5953   33.9971 N   0  0  0  0  0  0  0  0  0  0  0  0
    7.2096   17.8188   32.8063 C   0  0  0  0  0  0  0  0  0  0  0  0
    7.4926   18.3851   31.9190 H   0  0  0  0  0  0  0  0  0  0  0  0
    6.1405   17.6086   32.7775 H   0  0  0  0  0  0  0  0  0  0  0  0
    7.9809   16.5139   32.8409 C   0  0  0  0  0  0  0  0  0  0  0  0
    7.8218   15.9840   31.9018 H   0  0  0  0  0  0  0  0  0  0  0  0
    7.6120   15.9068   33.6676 H   0  0  0  0  0  0  0  0  0  0  0  0
    9.4237   16.7418   33.0223 N   0  0  0  0  0  0  0  0  0  0  0  0
    9.7448   17.7444   34.0427 C   0  0  0  0  0  0  0  0  0  0  0  0
   10.7951   18.0169   33.9385 H   0  0  0  0  0  0  0  0  0  0  0  0
    9.5803   17.3006   35.0246 H   0  0  0  0  0  0  0  0  0  0  0  0
    8.9273   18.9821   33.9447 C   0  0  0  0  0  0  0  0  0  0  0  0
    9.1601   19.6467   34.7767 H   0  0  0  0  0  0  0  0  0  0  0  0
    9.1369   19.4909   33.0037 H   0  0  0  0  0  0  0  0  0  0  0  0
   10.3223   15.6237   33.0593 C   0  0  0  0  0  0  0  0  0  0  0  0
    9.9197   14.3552   32.6923 C   0  0  0  0  0  0  0  0  0  0  0  0
    8.9382   14.2023   32.2684 H   0  0  0  0  0  0  0  0  0  0  0  0
   10.7816   13.2678   32.8690 C   0  0  0  0  0  0  0  0  0  0  0  0
   10.4679   12.2870   32.5432 H   0  0  0  0  0  0  0  0  0  0  0  0
   12.0407   13.4224   33.4583 C   0  0  0  0  0  0  0  0  0  0  0  0
   12.4294   14.7004   33.8322 C   0  0  0  0  0  0  0  0  0  0  0  0
   13.3912   14.8464   34.3012 H   0  0  0  0  0  0  0  0  0  0  0  0
   11.6078   15.7897   33.6151 C   0  0  0  0  0  0  0  0  0  0  0  0
   11.9538   16.7794   33.8740 H   0  0  0  0  0  0  0  0  0  0  0  0
    4.8121   17.8780   36.3327 R   0  0  0  0  0  1  0  0  0  0  0  0
   12.8590   12.2390   33.8138 R   0  0  0  0  0  1  0  0  0  0  0  0
  1  2  1  0
  1  3  1  0
  1  4  1  0
  4  5  2  0
  4  6  1  0
  6  7  1  0
  6 17  1  0
  7  8  1  0
  7  9  1  0
  7 10  1  0
 10 11  1  0
 10 12  1  0
 10 13  1  0
 13 14  1  0
 13 20  1  0
 14 15  1  0
 14 16  1  0
 14 17  1  0
 17 18  1  0
 17 19  1  0
 20 21  2  0
 20 28  1  0
 21 22  1  0
 21 23  1  0
 23 24  1  0
 23 25  2  0
 25 26  1  0
 26 27  1  0
 26 28  2  0
 28 29  1  0
  1 30  1  0
 25 31  1  0
M  ISO  2  30  35  31  68
M  END
>  <kinase>  (1) 
Erk2

>  <family>  (1) 
MAPK

>  <group>  (1) 
CMGC

>  <complex_pdb>  (1) 
4qta

>  <ligand_pdb>  (1) 
38Z

>  <alt>  (1) 
B

>  <chain>  (1) 
A

>  <atom.prop.subpocket>  (1) 
B2 B2 B2 B2 B2 B2 B2 B2 B2 B2 B2 B2 B2 B2 B2 B2 B2 B2 B2 B2 B2 B2 B2 B2 B2 B2 B2 B2 B2 GA X-B2

>  <atom.prop.environment>  (1) 
4 4 4 4 4 5 5 5 5 5 5 5 5 5 5 5 5 5 5 16 16 16 16 16 16 16 16 16 16 na na

$$$$
5bue_chainA
     RDKit          3D

 12 12  0  0  0  0  0  0  0  0999 V2000
    4.6321   15.1295   36.4107 C   0  0  0  0  0  0  0  0  0  0  0  0
    5.5980   15.1304   35.3798 C   0  0  0  0  0  0  0  0  0  0  0  0
    5.3073   15.4106   34.3781 H   0  0  0  0  0  0  0  0  0  0  0  0
    6.9354   14.7709   35.6399 C   0  0  0  0  0  0  0  0  0  0  0  0
    7.6587   14.7733   34.8379 H   0  0  0  0  0  0  0  0  0  0  0  0
    7.3329   14.4083   36.9420 C   0  0  0  0  0  0  0  0  0  0  0  0
    8.3588   14.1346   37.1394 H   0  0  0  0  0  0  0  0  0  0  0  0
    6.3857   14.4043   37.9862 C   0  0  0  0  0  0  0  0  0  0  0  0
    6.6805   14.1281   38.9878 H   0  0  0  0  0  0  0  0  0  0  0  0
    5.0474   14.7645   37.7112 C   0  0  0  0  0  0  0  0  0  0  0  0
    4.3248   14.7608   38.5139 H   0  0  0  0  0  0  0  0  0  0  0  0
    3.1821   15.5456   36.1059 R   0  0  0  0  0  1  0  0  0  0  0  0
  1  2  2  0
  1 10  1  0
  2  3  1  0
  2  4  1  0
  4  5  1  0
  4  6  2  0
  6  7  1  0
  6  8  1  0
  8  9  1  0
  8 10  2  0
 10 11  1  0
  1 12  1  0
M  ISO  1  12  18
M  END
>  <kinase>  (1) 
Erk2

>  <family>  (1) 
MAPK

>  <group>  (1) 
CMGC

>  <complex_pdb>  (1) 
5bue

>  <ligand_pdb>  (1) 
4V8

>  <alt>  (1) 
 

>  <chain>  (1) 
A

>  <atom.prop.subpocket>  (1) 
B2 B2 B2 B2 B2 B2 B2 B2 B2 B2 B2 GA

>  <atom.prop.environment>  (1) 
16 16 16 16 16 16 16 16 16 16 16 na

$$$$
6g9d_altB_chainA
     RDKit          3D

 21 20  0  0  0  0  0  0  0  0999 V2000
    7.4850   18.6840   32.5113 C   0  0  0  0  0  0  0  0  0  0  0  0
    8.3065   19.2721   32.1022 H   0  0  0  0  0  0  0  0  0  0  0  0
    6.5408   19.1905   32.3115 H   0  0  0  0  0  0  0  0  0  0  0  0
    7.4751   17.6993   32.0439 H   0  0  0  0  0  0  0  0  0  0  0  0
    7.6710   18.5298   34.0199 C   0  0  0  0  0  0  0  0  0  0  0  0
    8.9828   17.8007   34.3151 C   0  0  0  0  0  0  0  0  0  0  0  0
    9.8178   18.3830   33.9254 H   0  0  0  0  0  0  0  0  0  0  0  0
    8.9692   16.8207   33.8380 H   0  0  0  0  0  0  0  0  0  0  0  0
    9.0963   17.6787   35.3923 H   0  0  0  0  0  0  0  0  0  0  0  0
    6.1875   17.6037   35.8426 C   0  0  0  0  0  0  0  0  0  0  0  0
    4.9658   16.7391   36.0929 C   0  0  0  0  0  0  0  0  0  0  0  0
    5.2609   15.6926   36.0168 H   0  0  0  0  0  0  0  0  0  0  0  0
    4.2210   16.9630   35.3292 H   0  0  0  0  0  0  0  0  0  0  0  0
    7.6761   19.9076   34.6849 C   0  0  0  0  0  0  0  0  0  0  0  0
    8.5042   20.4976   34.2921 H   0  0  0  0  0  0  0  0  0  0  0  0
    7.7923   19.7907   35.7624 H   0  0  0  0  0  0  0  0  0  0  0  0
    6.7354   20.4164   34.4740 H   0  0  0  0  0  0  0  0  0  0  0  0
    6.5486   17.7310   34.5527 N   0  0  0  0  0  0  0  0  0  0  0  0
    5.9930   17.2265   33.8767 H   0  0  0  0  0  0  0  0  0  0  0  0
    6.7889   18.1423   36.7690 O   0  0  0  0  0  0  0  0  0  0  0  0
    4.3662   16.9559   37.4001 R   0  0  0  0  0  1  0  0  0  0  0  0
  1  2  1  0
  1  3  1  0
  1  4  1  0
  1  5  1  0
  5  6  1  0
  5 14  1  0
  5 18  1  0
  6  7  1  0
  6  8  1  0
  6  9  1  0
 10 11  1  0
 10 18  1  0
 10 20  2  0
 11 12  1  0
 11 13  1  0
 14 15  1  0
 14 16  1  0
 14 17  1  0
 18 19  1  0
 11 21  1  0
M  ISO  1  21  49
M  END
>  <kinase>  (1) 
Erk2

>  <family>  (1) 
MAPK

>  <group>  (1) 
CMGC

>  <complex_pdb>  (1) 
6g9d

>  <ligand_pdb>  (1) 
ER8

>  <alt>  (1) 
B

>  <chain>  (1) 
A

>  <atom.prop.subpocket>  (1) 
B2 B2 B2 B2 B2 B2 B2 B2 B2 B2 B2 B2 B2 B2 B2 B2 B2 B2 B2 B2 GA

>  <atom.prop.environment>  (1) 
4 4 4 4 4 4 4 4 4 8 8 8 8 4 4 4 4 5 5 8 na

$$$$
6g9h_altB_chainA
     RDKit          3D

 24 23  0  0  0  0  0  0  0  0999 V2000
    6.4702   15.7505   33.9570 C   0  0  0  0  0  0  0  0  0  0  0  0
    5.6938   15.1690   34.4542 H   0  0  0  0  0  0  0  0  0  0  0  0
    7.3640   15.1378   33.8398 H   0  0  0  0  0  0  0  0  0  0  0  0
    6.1153   16.0668   32.9762 H   0  0  0  0  0  0  0  0  0  0  0  0
    6.0070   17.2419   35.8475 C   0  0  0  0  0  0  0  0  0  0  0  0
    4.6555   16.5165   35.9625 C   0  0  0  0  0  0  0  0  0  0  0  0
    4.8204   15.4476   35.8271 H   0  0  0  0  0  0  0  0  0  0  0  0
    3.9940   16.8843   35.1782 H   0  0  0  0  0  0  0  0  0  0  0  0
    7.3145   19.3396   34.2759 C   0  0  0  0  0  0  0  0  0  0  0  0
    6.9540   19.6024   35.2705 H   0  0  0  0  0  0  0  0  0  0  0  0
    6.4962   19.4185   33.5603 H   0  0  0  0  0  0  0  0  0  0  0  0
    8.1157   20.0204   33.9882 H   0  0  0  0  0  0  0  0  0  0  0  0
    6.7894   16.9306   34.7648 N   0  0  0  0  0  0  0  0  0  0  0  0
    6.3471   18.0594   36.6949 O   0  0  0  0  0  0  0  0  0  0  0  0
    7.8442   17.9054   34.2884 C   0  0  0  0  0  0  0  0  0  0  0  0
    9.0538   17.8311   35.2138 C   0  0  0  0  0  0  0  0  0  0  0  0
    8.7422   18.0427   36.2366 H   0  0  0  0  0  0  0  0  0  0  0  0
    9.7963   18.5651   34.9009 H   0  0  0  0  0  0  0  0  0  0  0  0
    9.4875   16.8322   35.1653 H   0  0  0  0  0  0  0  0  0  0  0  0
    8.3325   17.6016   32.8678 C   0  0  0  0  0  0  0  0  0  0  0  0
    7.4906   17.6462   32.1769 H   0  0  0  0  0  0  0  0  0  0  0  0
    8.7727   16.6048   32.8403 H   0  0  0  0  0  0  0  0  0  0  0  0
    9.0815   18.3377   32.5759 H   0  0  0  0  0  0  0  0  0  0  0  0
    4.0163   16.7287   37.2464 R   0  0  0  0  0  1  0  0  0  0  0  0
  1  2  1  0
  1  3  1  0
  1  4  1  0
  1 13  1  0
  5  6  1  0
  5 13  1  0
  5 14  2  0
  6  7  1  0
  6  8  1  0
  9 10  1  0
  9 11  1  0
  9 12  1  0
  9 15  1  0
 13 15  1  0
 15 16  1  0
 15 20  1  0
 16 17  1  0
 16 18  1  0
 16 19  1  0
 20 21  1  0
 20 22  1  0
 20 23  1  0
  6 24  1  0
M  ISO  1  24  41
M  END
>  <kinase>  (1) 
Erk2

>  <family>  (1) 
MAPK

>  <group>  (1) 
CMGC

>  <complex_pdb>  (1) 
6g9h

>  <ligand_pdb>  (1) 
ERW

>  <alt>  (1) 
B

>  <chain>  (1) 
A

>  <atom.prop.subpocket>  (1) 
B2 B2 B2 B2 B2 B2 B2 B2 B2 B2 B2 B2 B2 B2 B2 B2 B2 B2 B2 B2 B2 B2 B2 GA

>  <atom.prop.environment>  (1) 
5 5 5 5 8 8 8 8 4 4 4 4 5 8 4 4 4 4 4 4 4 4 4 na

$$$$
6g9j_altB_chainA
     RDKit          3D

 25 25  0  0  0  0  0  0  0  0999 V2000
    7.4035   18.6724   32.9486 C   0  0  0  0  0  0  0  0  0  0  0  0
    8.2436   19.2148   32.5150 H   0  0  0  0  0  0  0  0  0  0  0  0
    6.6095   19.3748   33.2024 H   0  0  0  0  0  0  0  0  0  0  0  0
    7.0290   17.9458   32.2275 H   0  0  0  0  0  0  0  0  0  0  0  0
    7.8624   17.9480   34.2078 C   0  0  2  0  0  0  0  0  0  0  0  0
    8.2045   18.6543   34.9642 H   0  0  0  0  0  0  0  0  0  0  0  0
    4.7583   16.8973   36.1685 C   0  0  0  0  0  0  0  0  0  0  0  0
    4.9559   15.8289   36.0807 H   0  0  0  0  0  0  0  0  0  0  0  0
    4.0047   17.1887   35.4369 H   0  0  0  0  0  0  0  0  0  0  0  0
    9.0579   17.0641   33.8921 C   0  0  0  0  0  0  0  0  0  0  0  0
   10.0011   14.9520   33.2093 C   0  0  0  0  0  0  0  0  0  0  0  0
    9.8627   13.9211   32.9184 H   0  0  0  0  0  0  0  0  0  0  0  0
    8.8994   15.7392   33.5078 C   0  0  0  0  0  0  0  0  0  0  0  0
    7.9074   15.3175   33.4407 H   0  0  0  0  0  0  0  0  0  0  0  0
    6.7227   17.2220   34.7816 N   0  0  0  0  0  0  0  0  0  0  0  0
    6.4378   16.3567   34.3454 H   0  0  0  0  0  0  0  0  0  0  0  0
    6.0438   17.6451   35.8488 C   0  0  0  0  0  0  0  0  0  0  0  0
    6.4221   18.5770   36.5445 O   0  0  0  0  0  0  0  0  0  0  0  0
   10.3441   17.5869   33.9519 C   0  0  0  0  0  0  0  0  0  0  0  0
   10.4888   18.6206   34.2294 H   0  0  0  0  0  0  0  0  0  0  0  0
   11.4441   16.7941   33.6586 C   0  0  0  0  0  0  0  0  0  0  0  0
   12.4393   17.2083   33.7252 H   0  0  0  0  0  0  0  0  0  0  0  0
   11.2707   15.4791   33.2823 C   0  0  0  0  0  0  0  0  0  0  0  0
   12.1273   14.8653   33.0458 H   0  0  0  0  0  0  0  0  0  0  0  0
    4.2243   17.1512   37.4935 R   0  0  0  0  0  1  0  0  0  0  0  0
  1  2  1  0
  1  3  1  0
  1  4  1  0
  1  5  1  0
  5  6  1  1
  5 10  1  0
  5 15  1  0
  7  8  1  0
  7  9  1  0
  7 17  1  0
 10 13  2  0
 10 19  1  0
 11 12  1  0
 11 13  1  0
 11 23  2  0
 13 14  1  0
 15 16  1  0
 15 17  1  0
 17 18  2  0
 19 20  1  0
 19 21  2  0
 21 22  1  0
 21 23  1  0
 23 24  1  0
  7 25  1  0
M  ISO  1  25  48
M  END
>  <kinase>  (1) 
Erk2

>  <family>  (1) 
MAPK

>  <group>  (1) 
CMGC

>  <complex_pdb>  (1) 
6g9j

>  <ligand_pdb>  (1) 
ERK

>  <alt>  (1) 
B

>  <chain>  (1) 
A

>  <atom.prop.subpocket>  (1) 
B2 B2 B2 B2 B2 B2 B2 B2 B2 B2 B2 B2 B2 B2 B2 B2 B2 B2 B2 B2 B2 B2 B2 B2 GA

>  <atom.prop.environment>  (1) 
8 8 8 8 8 8 8 8 8 16 16 16 16 16 5 5 8 8 16 16 16 16 16 16 na

$$$$
6g9k_altB_chainA
     RDKit          3D

 26 26  0  0  0  0  0  0  0  0999 V2000
    7.3300   18.2833   33.1131 C   0  0  0  0  0  0  0  0  0  0  0  0
    8.1807   18.7428   32.6099 H   0  0  0  0  0  0  0  0  0  0  0  0
    6.6148   19.0556   33.3962 H   0  0  0  0  0  0  0  0  0  0  0  0
    7.8228   17.5741   34.3765 C   0  0  1  0  0  0  0  0  0  0  0  0
    8.1941   18.2932   35.1067 H   0  0  0  0  0  0  0  0  0  0  0  0
    6.7050   16.8606   34.9818 N   0  0  0  0  0  0  0  0  0  0  0  0
    6.4414   15.9659   34.5942 H   0  0  0  0  0  0  0  0  0  0  0  0
    6.0127   17.3283   36.0209 C   0  0  0  0  0  0  0  0  0  0  0  0
    4.6946   16.6280   36.2875 C   0  0  0  0  0  0  0  0  0  0  0  0
    4.8521   15.5538   36.1909 H   0  0  0  0  0  0  0  0  0  0  0  0
    3.9741   16.9583   35.5392 H   0  0  0  0  0  0  0  0  0  0  0  0
   11.1255   15.0006   33.3608 C   0  0  0  0  0  0  0  0  0  0  0  0
   11.9564   14.3600   33.1046 H   0  0  0  0  0  0  0  0  0  0  0  0
   11.3254   16.3540   33.5445 C   0  0  0  0  0  0  0  0  0  0  0  0
   12.3149   16.7720   33.4326 H   0  0  0  0  0  0  0  0  0  0  0  0
   10.2595   17.1788   33.8726 C   0  0  0  0  0  0  0  0  0  0  0  0
   10.4244   18.2375   34.0081 H   0  0  0  0  0  0  0  0  0  0  0  0
    6.7008   17.3761   32.2209 O   0  0  0  0  0  0  0  0  0  0  0  0
    5.7977   17.6752   32.0920 H   0  0  0  0  0  0  0  0  0  0  0  0
    6.3947   18.2596   36.7235 O   0  0  0  0  0  0  0  0  0  0  0  0
    8.9834   16.6566   34.0283 C   0  0  0  0  0  0  0  0  0  0  0  0
    8.7973   15.2897   33.8372 C   0  0  0  0  0  0  0  0  0  0  0  0
    7.8108   14.8646   33.9492 H   0  0  0  0  0  0  0  0  0  0  0  0
    9.8618   14.4697   33.5052 C   0  0  0  0  0  0  0  0  0  0  0  0
    9.7019   13.4116   33.3592 H   0  0  0  0  0  0  0  0  0  0  0  0
    4.1394   16.8906   37.6013 R   0  0  0  0  0  1  0  0  0  0  0  0
  1  2  1  0
  1  3  1  0
  1  4  1  0
  1 18  1  0
  4  5  1  1
  4  6  1  0
  4 21  1  0
  6  7  1  0
  6  8  1  0
  8  9  1  0
  8 20  2  0
  9 10  1  0
  9 11  1  0
 12 13  1  0
 12 14  2  0
 12 24  1  0
 14 15  1  0
 14 16  1  0
 16 17  1  0
 16 21  2  0
 18 19  1  0
 21 22  1  0
 22 23  1  0
 22 24  2  0
 24 25  1  0
  9 26  1  0
M  ISO  1  26  45
M  END
>  <kinase>  (1) 
Erk2

>  <family>  (1) 
MAPK

>  <group>  (1) 
CMGC

>  <complex_pdb>  (1) 
6g9k

>  <ligand_pdb>  (1) 
ESK

>  <alt>  (1) 
B

>  <chain>  (1) 
A

>  <atom.prop.subpocket>  (1) 
B2 B2 B2 B2 B2 B2 B2 B2 B2 B2 B2 B2 B2 B2 B2 B2 B2 B2 B2 B2 B2 B2 B2 B2 B2 GA

>  <atom.prop.environment>  (1) 
8 8 8 8 8 5 5 8 8 8 8 16 16 16 16 16 16 3 3 8 16 16 16 16 16 na

$$$$
6g9m_altB_chainA
     RDKit          3D

 18 17  0  0  0  0  0  0  0  0999 V2000
    8.2234   14.4217   34.6362 C   0  0  0  0  0  0  0  0  0  0  0  0
    8.1563   14.7460   33.5977 H   0  0  0  0  0  0  0  0  0  0  0  0
    7.5454   13.5841   34.7998 H   0  0  0  0  0  0  0  0  0  0  0  0
    9.2449   14.1103   34.8543 H   0  0  0  0  0  0  0  0  0  0  0  0
    7.8353   15.5795   35.5580 C   0  0  0  0  0  0  0  0  0  0  0  0
    8.6159   16.8332   35.1503 C   0  0  0  0  0  0  0  0  0  0  0  0
    8.4944   17.0050   34.0808 H   0  0  0  0  0  0  0  0  0  0  0  0
    9.6726   16.6934   35.3781 H   0  0  0  0  0  0  0  0  0  0  0  0
    8.2360   17.6932   35.7019 H   0  0  0  0  0  0  0  0  0  0  0  0
    6.4003   15.8638   35.3582 N   0  0  0  0  0  0  0  0  0  0  0  0
    5.9149   15.3582   34.6309 H   0  0  0  0  0  0  0  0  0  0  0  0
    5.6967   16.7547   36.0844 C   0  0  0  0  0  0  0  0  0  0  0  0
    4.1854   16.6077   36.0320 C   0  0  0  0  0  0  0  0  0  0  0  0
    3.9340   15.6135   35.6626 H   0  0  0  0  0  0  0  0  0  0  0  0
    3.7746   17.3600   35.3587 H   0  0  0  0  0  0  0  0  0  0  0  0
    6.2147   17.6441   36.7595 O   0  0  0  0  0  0  0  0  0  0  0  0
    3.6137   16.7853   37.3528 R   0  0  0  0  0  1  0  0  0  0  0  0
    7.9072   15.1894   37.0817 R   0  0  0  0  0  1  0  0  0  0  0  0
  1  2  1  0
  1  3  1  0
  1  4  1  0
  1  5  1  0
  5  6  1  0
  5 10  1  0
  6  7  1  0
  6  8  1  0
  6  9  1  0
 10 11  1  0
 10 12  1  0
 12 13  1  0
 12 16  2  0
 13 14  1  0
 13 15  1  0
 13 17  1  0
  5 18  1  0
M  ISO  2  17  47  18  62
M  END
>  <kinase>  (1) 
Erk2

>  <family>  (1) 
MAPK

>  <group>  (1) 
CMGC

>  <complex_pdb>  (1) 
6g9m

>  <ligand_pdb>  (1) 
ESW

>  <alt>  (1) 
B

>  <chain>  (1) 
A

>  <atom.prop.subpocket>  (1) 
B2 B2 B2 B2 B2 B2 B2 B2 B2 B2 B2 B2 B2 B2 B2 B2 GA GA

>  <atom.prop.environment>  (1) 
8 8 8 8 8 8 8 8 8 5 5 8 8 8 8 8 na na

$$$$
6g9n_altA_chainA
     RDKit          3D

 32 32  0  0  0  0  0  0  0  0999 V2000
    4.5652   14.5621   36.0408 C   0  0  0  0  0  0  0  0  0  0  0  0
    4.9647   14.3948   35.0405 H   0  0  0  0  0  0  0  0  0  0  0  0
    3.6210   14.0284   36.1490 H   0  0  0  0  0  0  0  0  0  0  0  0
    5.2762   14.1965   36.7818 H   0  0  0  0  0  0  0  0  0  0  0  0
    4.3329   16.0535   36.2522 C   0  0  2  0  0  0  0  0  0  0  0  0
    3.5874   16.3590   35.5181 H   0  0  0  0  0  0  0  0  0  0  0  0
    5.6234   16.8423   36.0234 C   0  0  0  0  0  0  0  0  0  0  0  0
    7.0126   18.1453   33.0336 C   0  0  0  0  0  0  0  0  0  0  0  0
    7.9065   18.6643   32.6877 H   0  0  0  0  0  0  0  0  0  0  0  0
    6.2188   18.8700   33.2144 H   0  0  0  0  0  0  0  0  0  0  0  0
   10.8540   16.0915   33.8591 C   0  0  0  0  0  0  0  0  0  0  0  0
   11.8654   16.4689   33.8270 H   0  0  0  0  0  0  0  0  0  0  0  0
   10.6151   14.7359   33.6964 C   0  0  0  0  0  0  0  0  0  0  0  0
   11.4463   14.0644   33.5397 H   0  0  0  0  0  0  0  0  0  0  0  0
    9.3226   14.2278   33.7318 C   0  0  0  0  0  0  0  0  0  0  0  0
    9.0632   12.7493   33.5920 C   0  0  0  0  0  0  0  0  0  0  0  0
   10.0060   12.2296   33.4210 H   0  0  0  0  0  0  0  0  0  0  0  0
    8.3946   12.5759   32.7488 H   0  0  0  0  0  0  0  0  0  0  0  0
    8.6015   12.3735   34.5051 H   0  0  0  0  0  0  0  0  0  0  0  0
    8.2768   15.1127   33.9569 C   0  0  0  0  0  0  0  0  0  0  0  0
    7.2670   14.7324   34.0025 H   0  0  0  0  0  0  0  0  0  0  0  0
    6.1302   17.5199   36.9184 O   0  0  0  0  0  0  0  0  0  0  0  0
    6.1312   16.7250   34.7989 N   0  0  0  0  0  0  0  0  0  0  0  0
    5.6603   16.1122   34.1487 H   0  0  0  0  0  0  0  0  0  0  0  0
    7.3308   17.4286   34.3330 C   0  0  1  0  0  0  0  0  0  0  0  0
    7.6252   18.1465   35.0985 H   0  0  0  0  0  0  0  0  0  0  0  0
    6.5928   17.2479   32.0388 O   0  0  0  0  0  0  0  0  0  0  0  0
    5.7074   17.5049   31.7710 H   0  0  0  0  0  0  0  0  0  0  0  0
    8.4957   16.4793   34.1257 C   0  0  0  0  0  0  0  0  0  0  0  0
    9.7964   16.9621   34.0628 C   0  0  0  0  0  0  0  0  0  0  0  0
    9.9837   18.0200   34.1732 H   0  0  0  0  0  0  0  0  0  0  0  0
    3.7979   16.3525   37.5724 R   0  0  0  0  0  1  0  0  0  0  0  0
  1  2  1  0
  1  3  1  0
  1  4  1  0
  1  5  1  0
  5  6  1  6
  5  7  1  0
  7 22  2  0
  7 23  1  0
  8  9  1  0
  8 10  1  0
  8 25  1  0
  8 27  1  0
 11 12  1  0
 11 13  2  0
 11 30  1  0
 13 14  1  0
 13 15  1  0
 15 16  1  0
 15 20  2  0
 16 17  1  0
 16 18  1  0
 16 19  1  0
 20 21  1  0
 20 29  1  0
 23 24  1  0
 23 25  1  0
 25 26  1  1
 25 29  1  0
 27 28  1  0
 29 30  2  0
 30 31  1  0
  5 32  1  0
M  ISO  1  32  43
M  END
>  <kinase>  (1) 
Erk2

>  <family>  (1) 
MAPK

>  <group>  (1) 
CMGC

>  <complex_pdb>  (1) 
6g9n

>  <ligand_pdb>  (1) 
ESN

>  <alt>  (1) 
A

>  <chain>  (1) 
A

>  <atom.prop.subpocket>  (1) 
B2 B2 B2 B2 B2 B2 B2 B2 B2 B2 B2 B2 B2 B2 B2 B2 B2 B2 B2 B2 B2 B2 B2 B2 B2 B2 B2 B2 B2 B2 B2 GA

>  <atom.prop.environment>  (1) 
8 8 8 8 8 8 8 8 8 8 16 16 16 16 16 8 8 8 8 16 16 8 5 5 8 8 3 3 16 16 16 na

$$$$
6gdm_altB_chainA
     RDKit          3D

 31 32  0  0  0  0  0  0  0  0999 V2000
    5.5821   18.2433   35.1501 C   0  0  0  0  0  0  0  0  0  0  0  0
    4.8562   18.7923   34.5503 H   0  0  0  0  0  0  0  0  0  0  0  0
    5.6926   17.2342   34.7530 H   0  0  0  0  0  0  0  0  0  0  0  0
    6.9261   18.9513   35.0467 C   0  0  0  0  0  0  0  0  0  0  0  0
    7.3854   19.5286   36.0261 O   0  0  0  0  0  0  0  0  0  0  0  0
    7.5880   18.9272   33.8716 N   0  0  0  0  0  0  0  0  0  0  0  0
    8.9555   19.4208   33.7617 C   0  0  0  0  0  0  0  0  0  0  0  0
    9.1287   20.1918   34.5124 H   0  0  0  0  0  0  0  0  0  0  0  0
    9.1159   19.8387   32.7678 H   0  0  0  0  0  0  0  0  0  0  0  0
    9.9102   18.2629   33.9890 C   0  0  0  0  0  0  0  0  0  0  0  0
    9.7950   17.9079   35.0131 H   0  0  0  0  0  0  0  0  0  0  0  0
   10.9311   18.6141   33.8389 H   0  0  0  0  0  0  0  0  0  0  0  0
    9.6509   17.1399   33.0627 N   0  0  0  0  0  0  0  0  0  0  0  0
    8.2240   16.7652   32.9534 C   0  0  0  0  0  0  0  0  0  0  0  0
    7.9317   16.2278   33.8556 H   0  0  0  0  0  0  0  0  0  0  0  0
    8.0964   16.1166   32.0868 H   0  0  0  0  0  0  0  0  0  0  0  0
    7.3237   17.9802   32.7933 C   0  0  0  0  0  0  0  0  0  0  0  0
    7.5242   18.4570   31.8338 H   0  0  0  0  0  0  0  0  0  0  0  0
    6.2804   17.6670   32.8324 H   0  0  0  0  0  0  0  0  0  0  0  0
   10.5135   16.0144   33.3868 C   0  0  0  0  0  0  0  0  0  0  0  0
   10.0628   14.7012   33.2599 C   0  0  0  0  0  0  0  0  0  0  0  0
    9.0567   14.5129   32.9152 H   0  0  0  0  0  0  0  0  0  0  0  0
   10.8913   13.6350   33.5711 C   0  0  0  0  0  0  0  0  0  0  0  0
   10.5228   12.6252   33.4661 H   0  0  0  0  0  0  0  0  0  0  0  0
   12.1939   13.8486   34.0179 C   0  0  0  0  0  0  0  0  0  0  0  0
   12.6432   15.1601   34.1447 C   0  0  0  0  0  0  0  0  0  0  0  0
   13.6490   15.3473   34.4906 H   0  0  0  0  0  0  0  0  0  0  0  0
   11.8204   16.2255   33.8343 C   0  0  0  0  0  0  0  0  0  0  0  0
   12.1918   17.2342   33.9388 H   0  0  0  0  0  0  0  0  0  0  0  0
    5.0737   18.1486   36.5206 R   0  0  0  0  0  1  0  0  0  0  0  0
   13.0817   12.7071   34.3522 R   0  0  0  0  0  1  0  0  0  0  0  0
  1  2  1  0
  1  3  1  0
  1  4  1  0
  4  5  2  0
  4  6  1  0
  6  7  1  0
  6 17  1  0
  7  8  1  0
  7  9  1  0
  7 10  1  0
 10 11  1  0
 10 12  1  0
 10 13  1  0
 13 14  1  0
 13 20  1  0
 14 15  1  0
 14 16  1  0
 14 17  1  0
 17 18  1  0
 17 19  1  0
 20 21  2  0
 20 28  1  0
 21 22  1  0
 21 23  1  0
 23 24  1  0
 23 25  2  0
 25 26  1  0
 26 27  1  0
 26 28  2  0
 28 29  1  0
  1 30  1  0
 25 31  1  0
M  ISO  2  30  35  31  68
M  END
>  <kinase>  (1) 
Erk2

>  <family>  (1) 
MAPK

>  <group>  (1) 
CMGC

>  <complex_pdb>  (1) 
6gdm

>  <ligand_pdb>  (1) 
F3Z

>  <alt>  (1) 
B

>  <chain>  (1) 
A

>  <atom.prop.subpocket>  (1) 
B2 B2 B2 B2 B2 B2 B2 B2 B2 B2 B2 B2 B2 B2 B2 B2 B2 B2 B2 B2 B2 B2 B2 B2 B2 B2 B2 B2 B2 GA X-B2

>  <atom.prop.environment>  (1) 
4 4 4 4 4 5 5 5 5 5 5 5 5 5 5 5 5 5 5 16 16 16 16 16 16 16 16 16 16 na na

$$$$
6ge0_altA_chainA
     RDKit          3D

 29 29  0  0  0  0  0  0  0  0999 V2000
    8.3309   13.0632   32.7455 C   0  0  0  0  0  0  0  0  0  0  0  0
    8.3514   12.0335   32.3885 H   0  0  0  0  0  0  0  0  0  0  0  0
    7.6928   13.6608   32.0944 H   0  0  0  0  0  0  0  0  0  0  0  0
    7.9376   13.0877   33.7617 H   0  0  0  0  0  0  0  0  0  0  0  0
    9.8423   14.8928   33.1525 C   0  0  0  0  0  0  0  0  0  0  0  0
   11.4101   16.6369   33.6425 C   0  0  0  0  0  0  0  0  0  0  0  0
   12.4304   16.9821   33.7207 H   0  0  0  0  0  0  0  0  0  0  0  0
   10.3639   17.4859   33.9590 C   0  0  0  0  0  0  0  0  0  0  0  0
   10.5743   18.5030   34.2551 H   0  0  0  0  0  0  0  0  0  0  0  0
    9.0457   17.0473   33.9009 C   0  0  0  0  0  0  0  0  0  0  0  0
    8.7974   15.7425   33.4843 C   0  0  0  0  0  0  0  0  0  0  0  0
    7.7794   15.3877   33.4186 H   0  0  0  0  0  0  0  0  0  0  0  0
    7.5199   18.8512   33.0426 C   0  0  0  0  0  0  0  0  0  0  0  0
    8.3993   19.3790   32.6737 H   0  0  0  0  0  0  0  0  0  0  0  0
    6.7601   19.5743   33.3393 H   0  0  0  0  0  0  0  0  0  0  0  0
    7.1237   18.2105   32.2548 H   0  0  0  0  0  0  0  0  0  0  0  0
    6.0561   17.6215   35.8359 C   0  0  0  0  0  0  0  0  0  0  0  0
    4.7515   16.8796   36.0363 C   0  0  0  0  0  0  0  0  0  0  0  0
    4.9324   15.8129   35.9040 H   0  0  0  0  0  0  0  0  0  0  0  0
    4.0365   17.2223   35.2884 H   0  0  0  0  0  0  0  0  0  0  0  0
    9.6576   13.5981   32.7346 O   0  0  0  0  0  0  0  0  0  0  0  0
   11.1458   15.3492   33.2272 C   0  0  0  0  0  0  0  0  0  0  0  0
   11.9609   14.6934   32.9589 H   0  0  0  0  0  0  0  0  0  0  0  0
    7.9070   17.9970   34.2465 C   0  0  1  0  0  0  0  0  0  0  0  0
    8.2784   18.6364   35.0473 H   0  0  0  0  0  0  0  0  0  0  0  0
    6.7245   17.2955   34.7321 N   0  0  0  0  0  0  0  0  0  0  0  0
    6.3899   16.5089   34.1943 H   0  0  0  0  0  0  0  0  0  0  0  0
    6.4447   18.4575   36.6444 O   0  0  0  0  0  0  0  0  0  0  0  0
    4.1849   17.0951   37.3539 R   0  0  0  0  0  1  0  0  0  0  0  0
  1  2  1  0
  1  3  1  0
  1  4  1  0
  1 21  1  0
  5 11  2  0
  5 21  1  0
  5 22  1  0
  6  7  1  0
  6  8  1  0
  6 22  2  0
  8  9  1  0
  8 10  2  0
 10 11  1  0
 10 24  1  0
 11 12  1  0
 13 14  1  0
 13 15  1  0
 13 16  1  0
 13 24  1  0
 17 18  1  0
 17 26  1  0
 17 28  2  0
 18 19  1  0
 18 20  1  0
 22 23  1  0
 24 25  1  1
 24 26  1  0
 26 27  1  0
 18 29  1  0
M  ISO  1  29  45
M  END
>  <kinase>  (1) 
Erk2

>  <family>  (1) 
MAPK

>  <group>  (1) 
CMGC

>  <complex_pdb>  (1) 
6ge0

>  <ligand_pdb>  (1) 
EVQ

>  <alt>  (1) 
A

>  <chain>  (1) 
A

>  <atom.prop.subpocket>  (1) 
B2 B2 B2 B2 B2 B2 B2 B2 B2 B2 B2 B2 B2 B2 B2 B2 B2 B2 B2 B2 B2 B2 B2 B2 B2 B2 B2 B2 GA

>  <atom.prop.environment>  (1) 
3 3 3 3 16 16 16 16 16 16 16 16 8 8 8 8 8 8 8 8 3 16 16 8 8 5 5 8 na

$$$$
6gjd_altA_chainA
     RDKit          3D

 31 32  0  0  0  0  0  0  0  0999 V2000
    7.2517   19.2750   36.0525 O   0  0  0  0  0  0  0  0  0  0  0  0
    6.8191   18.8885   34.9702 C   0  0  0  0  0  0  0  0  0  0  0  0
    5.4161   18.3209   34.8998 C   0  0  0  0  0  0  0  0  0  0  0  0
    5.4621   17.3493   34.4080 H   0  0  0  0  0  0  0  0  0  0  0  0
    4.7999   18.9985   34.3089 H   0  0  0  0  0  0  0  0  0  0  0  0
    7.5467   18.9430   33.8328 N   0  0  0  0  0  0  0  0  0  0  0  0
    8.9587   19.2987   33.8409 C   0  0  0  0  0  0  0  0  0  0  0  0
    9.1749   19.9164   34.7126 H   0  0  0  0  0  0  0  0  0  0  0  0
    9.2011   19.8527   32.9340 H   0  0  0  0  0  0  0  0  0  0  0  0
    9.7857   18.0338   33.8984 C   0  0  0  0  0  0  0  0  0  0  0  0
    9.5850   17.5258   34.8417 H   0  0  0  0  0  0  0  0  0  0  0  0
   10.8410   18.3017   33.8474 H   0  0  0  0  0  0  0  0  0  0  0  0
    9.4743   17.1118   32.7856 N   0  0  0  0  0  0  0  0  0  0  0  0
    8.0231   16.8856   32.6052 C   0  0  0  0  0  0  0  0  0  0  0  0
    7.6592   16.2561   33.4172 H   0  0  0  0  0  0  0  0  0  0  0  0
    7.8590   16.3812   31.6530 H   0  0  0  0  0  0  0  0  0  0  0  0
    7.2491   18.1960   32.6105 C   0  0  0  0  0  0  0  0  0  0  0  0
    7.5382   18.7904   31.7438 H   0  0  0  0  0  0  0  0  0  0  0  0
    6.1806   17.9852   32.5664 H   0  0  0  0  0  0  0  0  0  0  0  0
   10.2817   15.9068   32.9366 C   0  0  0  0  0  0  0  0  0  0  0  0
    9.7966   14.6436   32.5821 C   0  0  0  0  0  0  0  0  0  0  0  0
    8.7993   14.5451   32.1795 H   0  0  0  0  0  0  0  0  0  0  0  0
   10.5909   13.5136   32.7451 C   0  0  0  0  0  0  0  0  0  0  0  0
   10.2051   12.5459   32.4601 H   0  0  0  0  0  0  0  0  0  0  0  0
   11.8809   13.6126   33.2725 C   0  0  0  0  0  0  0  0  0  0  0  0
   12.3464   14.8694   33.6530 C   0  0  0  0  0  0  0  0  0  0  0  0
   13.3281   14.9623   34.0933 H   0  0  0  0  0  0  0  0  0  0  0  0
   11.5731   15.9950   33.4758 C   0  0  0  0  0  0  0  0  0  0  0  0
   11.9673   16.9605   33.7565 H   0  0  0  0  0  0  0  0  0  0  0  0
    4.7879   18.1471   36.2062 R   0  0  0  0  0  1  0  0  0  0  0  0
   12.7185   12.4098   33.5070 R   0  0  0  0  0  1  0  0  0  0  0  0
  1  2  2  0
  2  3  1  0
  2  6  1  0
  3  4  1  0
  3  5  1  0
  6  7  1  0
  6 17  1  0
  7  8  1  0
  7  9  1  0
  7 10  1  0
 10 11  1  0
 10 12  1  0
 10 13  1  0
 13 14  1  0
 13 20  1  0
 14 15  1  0
 14 16  1  0
 14 17  1  0
 17 18  1  0
 17 19  1  0
 20 21  2  0
 20 28  1  0
 21 22  1  0
 21 23  1  0
 23 24  1  0
 23 25  2  0
 25 26  1  0
 26 27  1  0
 26 28  2  0
 28 29  1  0
  3 30  1  0
 25 31  1  0
M  ISO  2  30  26  31 108
M  END
>  <kinase>  (1) 
Erk2

>  <family>  (1) 
MAPK

>  <group>  (1) 
CMGC

>  <complex_pdb>  (1) 
6gjd

>  <ligand_pdb>  (1) 
F0E

>  <alt>  (1) 
A

>  <chain>  (1) 
A

>  <atom.prop.subpocket>  (1) 
B2 B2 B2 B2 B2 B2 B2 B2 B2 B2 B2 B2 B2 B2 B2 B2 B2 B2 B2 B2 B2 B2 B2 B2 B2 B2 B2 B2 B2 GA X-B2

>  <atom.prop.environment>  (1) 
4 4 4 4 4 5 5 5 5 5 5 5 5 5 5 5 5 5 5 16 16 16 16 16 16 16 16 16 16 na na

$$$$
6opi_chainA
     RDKit          3D

 30 31  0  0  0  0  0  0  0  0999 V2000
    5.2790   18.6212   35.1161 C   0  0  0  0  0  0  0  0  0  0  0  0
    4.8861   19.6022   35.3831 H   0  0  0  0  0  0  0  0  0  0  0  0
    4.8760   18.3191   34.1494 H   0  0  0  0  0  0  0  0  0  0  0  0
    6.7976   18.7230   34.9977 C   0  0  0  0  0  0  0  0  0  0  0  0
    7.3521   19.1127   36.0156 O   0  0  0  0  0  0  0  0  0  0  0  0
    7.4901   18.8182   33.8264 N   0  0  0  0  0  0  0  0  0  0  0  0
    8.8831   19.2583   33.9320 C   0  0  0  0  0  0  0  0  0  0  0  0
    8.9843   19.9303   34.7843 H   0  0  0  0  0  0  0  0  0  0  0  0
    9.1643   19.7840   33.0195 H   0  0  0  0  0  0  0  0  0  0  0  0
    9.8060   18.0556   34.1258 C   0  0  0  0  0  0  0  0  0  0  0  0
    9.8262   17.8052   35.1864 H   0  0  0  0  0  0  0  0  0  0  0  0
   10.8077   18.3349   33.7993 H   0  0  0  0  0  0  0  0  0  0  0  0
    9.3707   16.8079   33.3413 C   0  0  0  0  0  0  0  0  0  0  0  0
    8.1097   16.6923   32.8699 C   0  0  0  0  0  0  0  0  0  0  0  0
    7.7025   15.7198   32.6359 H   0  0  0  0  0  0  0  0  0  0  0  0
    7.2700   17.9423   32.6720 C   0  0  0  0  0  0  0  0  0  0  0  0
    7.5733   18.4515   31.7572 H   0  0  0  0  0  0  0  0  0  0  0  0
    6.2156   17.6740   32.6060 H   0  0  0  0  0  0  0  0  0  0  0  0
   10.2755   15.6471   33.4830 C   0  0  0  0  0  0  0  0  0  0  0  0
   11.6546   15.8601   33.7485 C   0  0  0  0  0  0  0  0  0  0  0  0
   12.0484   16.8631   33.8210 H   0  0  0  0  0  0  0  0  0  0  0  0
   12.5128   14.7345   33.9182 C   0  0  0  0  0  0  0  0  0  0  0  0
   13.5566   14.9127   34.1306 H   0  0  0  0  0  0  0  0  0  0  0  0
   12.0626   13.3863   33.8216 C   0  0  0  0  0  0  0  0  0  0  0  0
   10.6824   13.1877   33.5567 C   0  0  0  0  0  0  0  0  0  0  0  0
   10.2868   12.1857   33.4801 H   0  0  0  0  0  0  0  0  0  0  0  0
    9.8188   14.3072   33.3919 C   0  0  0  0  0  0  0  0  0  0  0  0
    8.7731   14.1292   33.1891 H   0  0  0  0  0  0  0  0  0  0  0  0
    4.8324   17.6353   36.1452 R   0  0  0  0  0  1  0  0  0  0  0  0
   12.9594   12.2767   34.0520 R   0  0  0  0  0  1  0  0  0  0  0  0
  1  2  1  0
  1  3  1  0
  1  4  1  0
  4  5  2  0
  4  6  1  0
  6  7  1  0
  6 16  1  0
  7  8  1  0
  7  9  1  0
  7 10  1  0
 10 11  1  0
 10 12  1  0
 10 13  1  0
 13 14  2  0
 13 19  1  0
 14 15  1  0
 14 16  1  0
 16 17  1  0
 16 18  1  0
 19 20  2  0
 19 27  1  0
 20 21  1  0
 20 22  1  0
 22 23  1  0
 22 24  2  0
 24 25  1  0
 25 26  1  0
 25 27  2  0
 27 28  1  0
  1 29  1  0
 24 30  1  0
M  ISO  2  29  38  30  76
M  END
>  <kinase>  (1) 
Erk2

>  <family>  (1) 
MAPK

>  <group>  (1) 
CMGC

>  <complex_pdb>  (1) 
6opi

>  <ligand_pdb>  (1) 
N0V

>  <alt>  (1) 
 

>  <chain>  (1) 
A

>  <atom.prop.subpocket>  (1) 
B2 B2 B2 B2 B2 B2 B2 B2 B2 B2 B2 B2 B2 B2 B2 B2 B2 B2 B2 B2 B2 B2 B2 B2 B2 B2 B2 B2 GA X-B2

>  <atom.prop.environment>  (1) 
4 4 4 4 4 16 16 16 16 16 16 16 16 16 16 16 16 16 16 16 16 16 16 16 16 16 16 16 na na

$$$$
5zv2_chainA
     RDKit          3D

 11 11  0  0  0  0  0  0  0  0999 V2000
    4.6149   21.6063   35.6161 N   0  0  0  0  0  0  0  0  0  0  0  0
    5.6186   21.5359   35.7037 H   0  0  0  0  0  0  0  0  0  0  0  0
    4.0653   22.2632   34.4436 C   0  0  0  0  0  0  0  0  0  0  0  0
    3.0802   22.4446   34.8734 H   0  0  0  0  0  0  0  0  0  0  0  0
    4.9403   23.1495   33.5563 C   0  0  0  0  0  0  0  0  0  0  0  0
    5.9211   23.4725   33.9054 H   0  0  0  0  0  0  0  0  0  0  0  0
    4.4874   23.9424   32.9610 H   0  0  0  0  0  0  0  0  0  0  0  0
    4.7031   21.6857   33.1880 C   0  0  0  0  0  0  0  0  0  0  0  0
    4.0822   21.4342   32.3282 H   0  0  0  0  0  0  0  0  0  0  0  0
    5.5159   20.9643   33.2726 H   0  0  0  0  0  0  0  0  0  0  0  0
    3.8468   21.0874   36.5910 R   0  0  0  0  0  1  0  0  0  0  0  0
  1  2  1  0
  1  3  1  0
  3  4  1  0
  3  5  1  0
  3  8  1  0
  5  6  1  0
  5  7  1  0
  5  8  1  0
  8  9  1  0
  8 10  1  0
  1 11  1  0
M  ISO  1  11  36
M  END
>  <kinase>  (1) 
FGFR1

>  <family>  (1) 
FGFR

>  <group>  (1) 
TK

>  <complex_pdb>  (1) 
5zv2

>  <ligand_pdb>  (1) 
LEV

>  <alt>  (1) 
 

>  <chain>  (1) 
A

>  <atom.prop.subpocket>  (1) 
B2 B2 B2 B2 B2 B2 B2 B2 B2 B2 GA

>  <atom.prop.environment>  (1) 
5 5 15 15 15 15 15 15 15 15 na

$$$$
2c0i_altB_chainB
     RDKit          3D

 19 20  0  0  0  0  0  0  0  0999 V2000
    4.7466   21.0225   35.6350 C   0  0  0  0  0  0  0  0  0  0  0  0
    4.7047   22.0249   34.7156 N   0  0  0  0  0  0  0  0  0  0  0  0
    5.9600   20.3449   35.5459 C   0  0  0  0  0  0  0  0  0  0  0  0
    6.3042   19.4996   36.1232 H   0  0  0  0  0  0  0  0  0  0  0  0
    5.8596   22.0684   34.0018 C   0  0  0  0  0  0  0  0  0  0  0  0
    3.5699   22.9613   34.5151 C   0  0  0  0  0  0  0  0  0  0  0  0
    2.7678   22.7142   35.2106 H   0  0  0  0  0  0  0  0  0  0  0  0
    3.2036   22.8745   33.4922 H   0  0  0  0  0  0  0  0  0  0  0  0
    3.9054   23.9826   34.6954 H   0  0  0  0  0  0  0  0  0  0  0  0
    6.6368   21.0469   34.4999 C   0  0  0  0  0  0  0  0  0  0  0  0
    6.3401   22.8747   32.9565 C   0  0  0  0  0  0  0  0  0  0  0  0
    5.7232   23.6711   32.5671 H   0  0  0  0  0  0  0  0  0  0  0  0
    7.9142   20.8124   33.9639 C   0  0  0  0  0  0  0  0  0  0  0  0
    8.5227   20.0092   34.3527 H   0  0  0  0  0  0  0  0  0  0  0  0
    7.6110   22.6541   32.4165 C   0  0  0  0  0  0  0  0  0  0  0  0
    7.9788   23.2769   31.6145 H   0  0  0  0  0  0  0  0  0  0  0  0
    8.4003   21.6186   32.9257 C   0  0  0  0  0  0  0  0  0  0  0  0
    9.3848   21.4400   32.5190 H   0  0  0  0  0  0  0  0  0  0  0  0
    3.6688   20.6445   36.5961 R   0  0  0  0  0  1  0  0  0  0  0  0
  1  2  1  0
  1  3  2  0
  2  5  1  0
  2  6  1  0
  3  4  1  0
  3 10  1  0
  5 10  2  0
  5 11  1  0
  6  7  1  0
  6  8  1  0
  6  9  1  0
 10 13  1  0
 11 12  1  0
 11 15  2  0
 13 14  1  0
 13 17  2  0
 15 16  1  0
 15 17  1  0
 17 18  1  0
  1 19  1  0
M  ISO  1  19  43
M  END
>  <kinase>  (1) 
HCK

>  <family>  (1) 
Src

>  <group>  (1) 
TK

>  <complex_pdb>  (1) 
2c0i

>  <ligand_pdb>  (1) 
L1G

>  <alt>  (1) 
B

>  <chain>  (1) 
B

>  <atom.prop.subpocket>  (1) 
B2 B2 B2 B2 B2 B2 B2 B2 B2 B2 B2 B2 B2 B2 B2 B2 B2 B2 GA

>  <atom.prop.environment>  (1) 
9 9 9 9 9 8 8 8 8 9 9 9 9 9 9 9 9 9 na

$$$$
2c0o_altB_chainA
     RDKit          3D

 19 20  0  0  0  0  0  0  0  0999 V2000
    4.8177   21.1047   35.6802 C   0  0  0  0  0  0  0  0  0  0  0  0
    4.7295   22.2077   34.8187 N   0  0  0  0  0  0  0  0  0  0  0  0
    6.0267   20.4550   35.4171 C   0  0  0  0  0  0  0  0  0  0  0  0
    6.4222   19.5655   35.8849 H   0  0  0  0  0  0  0  0  0  0  0  0
    5.8493   22.2513   34.0460 C   0  0  0  0  0  0  0  0  0  0  0  0
    3.6254   23.1679   34.7591 C   0  0  0  0  0  0  0  0  0  0  0  0
    2.8632   22.8909   35.4875 H   0  0  0  0  0  0  0  0  0  0  0  0
    3.1917   23.1613   33.7591 H   0  0  0  0  0  0  0  0  0  0  0  0
    3.9994   24.1662   34.9864 H   0  0  0  0  0  0  0  0  0  0  0  0
    6.5933   21.2151   34.4229 C   0  0  0  0  0  0  0  0  0  0  0  0
    6.2933   23.1404   33.0302 C   0  0  0  0  0  0  0  0  0  0  0  0
    5.6864   23.9890   32.7511 H   0  0  0  0  0  0  0  0  0  0  0  0
    7.8216   20.9848   33.8068 C   0  0  0  0  0  0  0  0  0  0  0  0
    8.4277   20.1447   34.1124 H   0  0  0  0  0  0  0  0  0  0  0  0
    7.5062   22.9168   32.3981 C   0  0  0  0  0  0  0  0  0  0  0  0
    7.8430   23.5755   31.6113 H   0  0  0  0  0  0  0  0  0  0  0  0
    8.2759   21.8438   32.7866 C   0  0  0  0  0  0  0  0  0  0  0  0
    9.2274   21.6606   32.3097 H   0  0  0  0  0  0  0  0  0  0  0  0
    3.7910   20.6762   36.6968 R   0  0  0  0  0  1  0  0  0  0  0  0
  1  2  1  0
  1  3  2  0
  2  5  1  0
  2  6  1  0
  3  4  1  0
  3 10  1  0
  5 10  2  0
  5 11  1  0
  6  7  1  0
  6  8  1  0
  6  9  1  0
 10 13  1  0
 11 12  1  0
 11 15  2  0
 13 14  1  0
 13 17  2  0
 15 16  1  0
 15 17  1  0
 17 18  1  0
  1 19  1  0
M  ISO  1  19  43
M  END
>  <kinase>  (1) 
HCK

>  <family>  (1) 
Src

>  <group>  (1) 
TK

>  <complex_pdb>  (1) 
2c0o

>  <ligand_pdb>  (1) 
L2G

>  <alt>  (1) 
B

>  <chain>  (1) 
A

>  <atom.prop.subpocket>  (1) 
B2 B2 B2 B2 B2 B2 B2 B2 B2 B2 B2 B2 B2 B2 B2 B2 B2 B2 GA

>  <atom.prop.environment>  (1) 
9 9 9 9 9 8 8 8 8 9 9 9 9 9 9 9 9 9 na

$$$$
2c0t_altB_chainB
     RDKit          3D

 19 20  0  0  0  0  0  0  0  0999 V2000
    4.8058   21.1629   35.7091 C   0  0  0  0  0  0  0  0  0  0  0  0
    4.7068   22.1424   34.7626 N   0  0  0  0  0  0  0  0  0  0  0  0
    6.0524   20.5476   35.6422 C   0  0  0  0  0  0  0  0  0  0  0  0
    6.4435   19.7443   36.2490 H   0  0  0  0  0  0  0  0  0  0  0  0
    5.8516   22.2142   34.0441 C   0  0  0  0  0  0  0  0  0  0  0  0
    3.5209   23.0160   34.5239 C   0  0  0  0  0  0  0  0  0  0  0  0
    2.7330   22.7604   35.2323 H   0  0  0  0  0  0  0  0  0  0  0  0
    3.1580   22.8662   33.5071 H   0  0  0  0  0  0  0  0  0  0  0  0
    3.8056   24.0596   34.6580 H   0  0  0  0  0  0  0  0  0  0  0  0
    6.6832   21.2457   34.5697 C   0  0  0  0  0  0  0  0  0  0  0  0
    6.2890   23.0144   32.9829 C   0  0  0  0  0  0  0  0  0  0  0  0
    5.6351   23.7692   32.5718 H   0  0  0  0  0  0  0  0  0  0  0  0
    7.9681   21.0590   34.0466 C   0  0  0  0  0  0  0  0  0  0  0  0
    8.6174   20.3018   34.4607 H   0  0  0  0  0  0  0  0  0  0  0  0
    7.5700   22.8387   32.4541 C   0  0  0  0  0  0  0  0  0  0  0  0
    7.9096   23.4596   31.6383 H   0  0  0  0  0  0  0  0  0  0  0  0
    8.4083   21.8583   32.9838 C   0  0  0  0  0  0  0  0  0  0  0  0
    9.3975   21.7152   32.5745 H   0  0  0  0  0  0  0  0  0  0  0  0
    3.7472   20.7672   36.6878 R   0  0  0  0  0  1  0  0  0  0  0  0
  1  2  1  0
  1  3  2  0
  2  5  1  0
  2  6  1  0
  3  4  1  0
  3 10  1  0
  5 10  2  0
  5 11  1  0
  6  7  1  0
  6  8  1  0
  6  9  1  0
 10 13  1  0
 11 12  1  0
 11 15  2  0
 13 14  1  0
 13 17  2  0
 15 16  1  0
 15 17  1  0
 17 18  1  0
  1 19  1  0
M  ISO  1  19  41
M  END
>  <kinase>  (1) 
HCK

>  <family>  (1) 
Src

>  <group>  (1) 
TK

>  <complex_pdb>  (1) 
2c0t

>  <ligand_pdb>  (1) 
L3G

>  <alt>  (1) 
B

>  <chain>  (1) 
B

>  <atom.prop.subpocket>  (1) 
B2 B2 B2 B2 B2 B2 B2 B2 B2 B2 B2 B2 B2 B2 B2 B2 B2 B2 GA

>  <atom.prop.environment>  (1) 
9 9 9 9 9 8 8 8 8 9 9 9 9 9 9 9 9 9 na

$$$$
3vrz_chainA
     RDKit          3D

 15 15  0  0  0  0  0  0  0  0999 V2000
    5.7080   21.9116   35.4560 C   0  0  0  0  0  0  0  0  0  0  0  0
    6.2468   22.1947   36.3602 H   0  0  0  0  0  0  0  0  0  0  0  0
    4.9553   22.6669   35.2299 H   0  0  0  0  0  0  0  0  0  0  0  0
    6.7006   21.9032   34.3183 C   0  0  0  0  0  0  0  0  0  0  0  0
    6.3308   22.4555   33.1019 C   0  0  0  0  0  0  0  0  0  0  0  0
    5.3402   22.8662   32.9739 H   0  0  0  0  0  0  0  0  0  0  0  0
    7.2339   22.4805   32.0490 C   0  0  0  0  0  0  0  0  0  0  0  0
    6.9410   22.9008   31.0983 H   0  0  0  0  0  0  0  0  0  0  0  0
    8.5132   21.9669   32.2140 C   0  0  0  0  0  0  0  0  0  0  0  0
    9.2143   21.9903   31.3928 H   0  0  0  0  0  0  0  0  0  0  0  0
    8.8920   21.4226   33.4352 C   0  0  0  0  0  0  0  0  0  0  0  0
    9.8864   21.0218   33.5660 H   0  0  0  0  0  0  0  0  0  0  0  0
    7.9839   21.3968   34.4879 C   0  0  0  0  0  0  0  0  0  0  0  0
    8.2768   20.9817   35.4409 H   0  0  0  0  0  0  0  0  0  0  0  0
    5.0095   20.6650   35.7334 R   0  0  0  0  0  1  0  0  0  0  0  0
  1  2  1  0
  1  3  1  0
  1  4  1  0
  4  5  2  0
  4 13  1  0
  5  6  1  0
  5  7  1  0
  7  8  1  0
  7  9  2  0
  9 10  1  0
  9 11  1  0
 11 12  1  0
 11 13  2  0
 13 14  1  0
  1 15  1  0
M  ISO  1  15  42
M  END
>  <kinase>  (1) 
HCK

>  <family>  (1) 
Src

>  <group>  (1) 
TK

>  <complex_pdb>  (1) 
3vrz

>  <ligand_pdb>  (1) 
VRZ

>  <alt>  (1) 
 

>  <chain>  (1) 
A

>  <atom.prop.subpocket>  (1) 
B2 B2 B2 B2 B2 B2 B2 B2 B2 B2 B2 B2 B2 B2 GA

>  <atom.prop.environment>  (1) 
8 8 8 16 16 16 16 16 16 16 16 16 16 16 na

$$$$
3d94_altA_chainA
     RDKit          3D

 12 12  0  0  0  0  0  0  0  0999 V2000
    5.3395   21.8507   34.5005 C   0  0  0  0  0  0  0  0  0  0  0  0
    5.3757   21.7519   33.0978 C   0  0  0  0  0  0  0  0  0  0  0  0
    4.4531   21.6273   32.5503 H   0  0  0  0  0  0  0  0  0  0  0  0
    6.5880   21.8124   32.3993 C   0  0  0  0  0  0  0  0  0  0  0  0
    6.5934   21.7308   31.3224 H   0  0  0  0  0  0  0  0  0  0  0  0
    7.7932   21.9784   33.0928 C   0  0  0  0  0  0  0  0  0  0  0  0
    8.7261   22.0296   32.5511 H   0  0  0  0  0  0  0  0  0  0  0  0
    7.7871   22.0767   34.4745 C   0  0  0  0  0  0  0  0  0  0  0  0
    8.7147   22.1878   35.0163 H   0  0  0  0  0  0  0  0  0  0  0  0
    6.5740   22.0312   35.1601 C   0  0  0  0  0  0  0  0  0  0  0  0
    6.5792   22.1380   36.2347 H   0  0  0  0  0  0  0  0  0  0  0  0
    4.0882   21.8316   35.2948 R   0  0  0  0  0  1  0  0  0  0  0  0
  1  2  2  0
  1 10  1  0
  2  3  1  0
  2  4  1  0
  4  5  1  0
  4  6  2  0
  6  7  1  0
  6  8  1  0
  8  9  1  0
  8 10  2  0
 10 11  1  0
  1 12  1  0
M  ISO  1  12  53
M  END
>  <kinase>  (1) 
IGF1R

>  <family>  (1) 
InsR

>  <group>  (1) 
TK

>  <complex_pdb>  (1) 
3d94

>  <ligand_pdb>  (1) 
D94

>  <alt>  (1) 
A

>  <chain>  (1) 
A

>  <atom.prop.subpocket>  (1) 
B2 B2 B2 B2 B2 B2 B2 B2 B2 B2 B2 GA

>  <atom.prop.environment>  (1) 
16 16 16 16 16 16 16 16 16 16 16 na

$$$$
3f5p_chainA
     RDKit          3D

 12 12  0  0  0  0  0  0  0  0999 V2000
    7.5540   21.1673   38.2789 C   0  0  0  0  0  0  0  0  0  0  0  0
    8.1241   20.0146   37.8873 N   0  0  0  0  0  0  0  0  0  0  0  0
    7.8635   20.0251   36.5515 C   0  0  0  0  0  0  0  0  0  0  0  0
    8.1607   19.2566   35.8533 H   0  0  0  0  0  0  0  0  0  0  0  0
    7.1446   21.1950   36.2176 C   0  0  0  0  0  0  0  0  0  0  0  0
    6.8140   21.4716   35.2274 H   0  0  0  0  0  0  0  0  0  0  0  0
    6.9393   21.9138   37.3536 N   0  0  0  0  0  0  0  0  0  0  0  0
    6.2657   23.1997   37.5389 C   0  0  0  0  0  0  0  0  0  0  0  0
    6.2903   23.4741   38.5935 H   0  0  0  0  0  0  0  0  0  0  0  0
    5.2301   23.1183   37.2087 H   0  0  0  0  0  0  0  0  0  0  0  0
    6.7750   23.9645   36.9525 H   0  0  0  0  0  0  0  0  0  0  0  0
    7.5101   21.7020   39.9860 R   0  0  0  0  0  1  0  0  0  0  0  0
  1  2  2  0
  1  7  1  0
  2  3  1  0
  3  4  1  0
  3  5  2  0
  5  6  1  0
  5  7  1  0
  7  8  1  0
  8  9  1  0
  8 10  1  0
  8 11  1  0
  1 12  1  0
M  ISO  1  12  40
M  END
>  <kinase>  (1) 
IGF1R

>  <family>  (1) 
InsR

>  <group>  (1) 
TK

>  <complex_pdb>  (1) 
3f5p

>  <ligand_pdb>  (1) 
741

>  <alt>  (1) 
 

>  <chain>  (1) 
A

>  <atom.prop.subpocket>  (1) 
B2 B2 B2 B2 B2 B2 B2 B2 B2 B2 B2 GA

>  <atom.prop.environment>  (1) 
14 14 14 14 14 14 14 8 8 8 8 na

$$$$
5hzn_chainH
     RDKit          3D

 15 15  0  0  0  0  0  0  0  0999 V2000
    6.3928   22.8891   35.8104 C   0  0  0  0  0  0  0  0  0  0  0  0
    6.1176   23.3330   36.7557 H   0  0  0  0  0  0  0  0  0  0  0  0
    7.7178   22.9654   35.3673 C   0  0  0  0  0  0  0  0  0  0  0  0
    8.4620   23.4655   35.9694 H   0  0  0  0  0  0  0  0  0  0  0  0
    8.0746   22.3952   34.1486 C   0  0  0  0  0  0  0  0  0  0  0  0
    9.0957   22.4515   33.8016 H   0  0  0  0  0  0  0  0  0  0  0  0
    7.1063   21.7503   33.3770 C   0  0  0  0  0  0  0  0  0  0  0  0
    7.3860   21.3054   32.4334 H   0  0  0  0  0  0  0  0  0  0  0  0
    3.9753   22.1400   35.5321 C   0  0  0  0  0  0  0  0  0  0  0  0
    3.7545   23.0287   36.1233 H   0  0  0  0  0  0  0  0  0  0  0  0
    3.3172   22.1086   34.6637 H   0  0  0  0  0  0  0  0  0  0  0  0
    5.4189   22.2403   35.0362 C   0  0  0  0  0  0  0  0  0  0  0  0
    5.7819   21.6730   33.8092 C   0  0  0  0  0  0  0  0  0  0  0  0
    5.0404   21.1778   33.1998 H   0  0  0  0  0  0  0  0  0  0  0  0
    3.7052   20.9686   36.3514 R   0  0  0  0  0  1  0  0  0  0  0  0
  1  2  1  0
  1  3  2  0
  1 12  1  0
  3  4  1  0
  3  5  1  0
  5  6  1  0
  5  7  2  0
  7  8  1  0
  7 13  1  0
  9 10  1  0
  9 11  1  0
  9 12  1  0
 12 13  2  0
 13 14  1  0
  9 15  1  0
M  ISO  1  15  56
M  END
>  <kinase>  (1) 
IGF1R

>  <family>  (1) 
InsR

>  <group>  (1) 
TK

>  <complex_pdb>  (1) 
5hzn

>  <ligand_pdb>  (1) 
66A

>  <alt>  (1) 
 

>  <chain>  (1) 
H

>  <atom.prop.subpocket>  (1) 
B2 B2 B2 B2 B2 B2 B2 B2 B2 B2 B2 B2 B2 B2 GA

>  <atom.prop.environment>  (1) 
16 16 16 16 16 16 16 16 8 8 8 16 16 16 na

$$$$
3da6_chainA
     RDKit          3D

 15 16  0  0  0  0  0  0  0  0999 V2000
    6.1487   18.0197   37.2356 N   0  0  0  0  0  0  0  0  0  0  0  0
    5.8951   17.2579   37.8483 H   0  0  0  0  0  0  0  0  0  0  0  0
    7.2618   19.4631   35.9782 C   0  0  0  0  0  0  0  0  0  0  0  0
    8.4181   20.0341   35.3893 C   0  0  0  0  0  0  0  0  0  0  0  0
    8.3396   20.9421   34.8098 H   0  0  0  0  0  0  0  0  0  0  0  0
    9.6662   19.4138   35.5628 C   0  0  0  0  0  0  0  0  0  0  0  0
   10.5620   19.8174   35.1144 H   0  0  0  0  0  0  0  0  0  0  0  0
    9.7017   18.2293   36.3555 C   0  0  0  0  0  0  0  0  0  0  0  0
   10.6458   17.7183   36.4735 H   0  0  0  0  0  0  0  0  0  0  0  0
    8.5799   17.6997   36.9840 C   0  0  0  0  0  0  0  0  0  0  0  0
    8.6636   16.8321   37.6217 H   0  0  0  0  0  0  0  0  0  0  0  0
    5.3389   18.9414   36.7246 C   0  0  0  0  0  0  0  0  0  0  0  0
    5.9781   19.8423   35.9571 N   0  0  0  0  0  0  0  0  0  0  0  0
    7.3561   18.3065   36.7758 C   0  0  0  0  0  0  0  0  0  0  0  0
    4.0490   18.9583   36.9347 R   0  0  0  0  0  1  0  0  0  0  0  0
  1  2  1  0
  1 12  1  0
  1 14  1  0
  3  4  1  0
  3 13  1  0
  3 14  2  0
  4  5  1  0
  4  6  2  0
  6  7  1  0
  6  8  1  0
  8  9  1  0
  8 10  2  0
 10 11  1  0
 10 14  1  0
 12 13  2  0
 12 15  1  0
M  ISO  1  15  54
M  END
>  <kinase>  (1) 
JNK3

>  <family>  (1) 
MAPK

>  <group>  (1) 
CMGC

>  <complex_pdb>  (1) 
3da6

>  <ligand_pdb>  (1) 
BZ9

>  <alt>  (1) 
 

>  <chain>  (1) 
A

>  <atom.prop.subpocket>  (1) 
B2 B2 B2 B2 B2 B2 B2 B2 B2 B2 B2 B2 B2 B2 GA

>  <atom.prop.environment>  (1) 
14 14 14 14 14 14 14 14 14 14 14 14 14 14 na

$$$$
4u79_chainA
     RDKit          3D

 15 15  0  0  0  0  0  0  0  0999 V2000
    7.0958   19.5320   37.3909 S   0  0  0  0  0  0  0  0  0  0  0  0
    8.0406   20.5398   36.8717 O   0  0  0  0  0  0  0  0  0  0  0  0
    7.6117   18.9132   38.6212 O   0  0  0  0  0  0  0  0  0  0  0  0
    6.9389   18.2731   36.2766 C   0  0  0  0  0  0  0  0  0  0  0  0
    5.8935   18.2601   35.3667 C   0  0  0  0  0  0  0  0  0  0  0  0
    5.1654   19.0578   35.3586 H   0  0  0  0  0  0  0  0  0  0  0  0
    5.7951   17.2143   34.4711 C   0  0  0  0  0  0  0  0  0  0  0  0
    4.9878   17.1906   33.7541 H   0  0  0  0  0  0  0  0  0  0  0  0
    6.7336   16.1949   34.4934 C   0  0  0  0  0  0  0  0  0  0  0  0
    6.6487   15.3747   33.7958 H   0  0  0  0  0  0  0  0  0  0  0  0
    7.7822   16.2174   35.4037 C   0  0  0  0  0  0  0  0  0  0  0  0
    8.5124   15.4217   35.4097 H   0  0  0  0  0  0  0  0  0  0  0  0
    7.8872   17.2633   36.3029 C   0  0  0  0  0  0  0  0  0  0  0  0
    8.6978   17.2924   37.0160 H   0  0  0  0  0  0  0  0  0  0  0  0
    5.7048   20.2743   37.7348 R   0  0  0  0  0  1  0  0  0  0  0  0
  1  2  2  0
  1  3  2  0
  1  4  1  0
  4  5  2  0
  4 13  1  0
  5  6  1  0
  5  7  1  0
  7  8  1  0
  7  9  2  0
  9 10  1  0
  9 11  1  0
 11 12  1  0
 11 13  2  0
 13 14  1  0
  1 15  1  0
M  ISO  1  15  56
M  END
>  <kinase>  (1) 
JNK3

>  <family>  (1) 
MAPK

>  <group>  (1) 
CMGC

>  <complex_pdb>  (1) 
4u79

>  <ligand_pdb>  (1) 
3EL

>  <alt>  (1) 
 

>  <chain>  (1) 
A

>  <atom.prop.subpocket>  (1) 
B2 B2 B2 B2 B2 B2 B2 B2 B2 B2 B2 B2 B2 B2 GA

>  <atom.prop.environment>  (1) 
12 12 12 12 12 12 12 12 12 12 12 12 12 12 na

$$$$
3b8r_chainB
     RDKit          3D

 11 11  0  0  0  0  0  0  0  0999 V2000
    4.7965   21.7462   34.8198 N   0  0  0  0  0  0  0  0  0  0  0  0
    5.7804   21.7747   35.0465 H   0  0  0  0  0  0  0  0  0  0  0  0
    4.4077   21.7883   33.4424 C   0  0  0  0  0  0  0  0  0  0  0  0
    4.0635   20.7613   33.3207 H   0  0  0  0  0  0  0  0  0  0  0  0
    4.0451   23.2513   33.2874 C   0  0  0  0  0  0  0  0  0  0  0  0
    4.3235   23.9715   34.0567 H   0  0  0  0  0  0  0  0  0  0  0  0
    3.0884   23.5376   32.8507 H   0  0  0  0  0  0  0  0  0  0  0  0
    5.0927   22.6065   32.4466 C   0  0  0  0  0  0  0  0  0  0  0  0
    4.9051   22.4365   31.3864 H   0  0  0  0  0  0  0  0  0  0  0  0
    6.1402   22.8704   32.5924 H   0  0  0  0  0  0  0  0  0  0  0  0
    3.8843   21.6685   35.8477 R   0  0  0  0  0  1  0  0  0  0  0  0
  1  2  1  0
  1  3  1  0
  3  4  1  0
  3  5  1  0
  3  8  1  0
  5  6  1  0
  5  7  1  0
  5  8  1  0
  8  9  1  0
  8 10  1  0
  1 11  1  0
M  ISO  1  11  41
M  END
>  <kinase>  (1) 
KDR

>  <family>  (1) 
VEGFR

>  <group>  (1) 
TK

>  <complex_pdb>  (1) 
3b8r

>  <ligand_pdb>  (1) 
887

>  <alt>  (1) 
 

>  <chain>  (1) 
B

>  <atom.prop.subpocket>  (1) 
B2 B2 B2 B2 B2 B2 B2 B2 B2 B2 GA

>  <atom.prop.environment>  (1) 
5 5 15 15 15 15 15 15 15 15 na

$$$$
3wzd_altA_chainA
     RDKit          3D

 11 11  0  0  0  0  0  0  0  0999 V2000
    4.7269   21.3224   35.2832 N   0  0  0  0  0  0  0  0  0  0  0  0
    5.7043   21.3860   35.5296 H   0  0  0  0  0  0  0  0  0  0  0  0
    4.3513   21.5827   33.8897 C   0  0  0  0  0  0  0  0  0  0  0  0
    4.1540   20.5293   33.6910 H   0  0  0  0  0  0  0  0  0  0  0  0
    3.6280   22.8519   33.5555 C   0  0  0  0  0  0  0  0  0  0  0  0
    3.3316   23.5348   34.3516 H   0  0  0  0  0  0  0  0  0  0  0  0
    2.8698   22.8557   32.7724 H   0  0  0  0  0  0  0  0  0  0  0  0
    5.0961   22.7057   33.1890 C   0  0  0  0  0  0  0  0  0  0  0  0
    5.3918   22.5989   32.1454 H   0  0  0  0  0  0  0  0  0  0  0  0
    5.8536   23.2779   33.7246 H   0  0  0  0  0  0  0  0  0  0  0  0
    3.8385   20.9994   36.2684 R   0  0  0  0  0  1  0  0  0  0  0  0
  1  2  1  0
  1  3  1  0
  3  4  1  0
  3  5  1  0
  3  8  1  0
  5  6  1  0
  5  7  1  0
  5  8  1  0
  8  9  1  0
  8 10  1  0
  1 11  1  0
M  ISO  1  11  36
M  END
>  <kinase>  (1) 
KDR

>  <family>  (1) 
VEGFR

>  <group>  (1) 
TK

>  <complex_pdb>  (1) 
3wzd

>  <ligand_pdb>  (1) 
LEV

>  <alt>  (1) 
A

>  <chain>  (1) 
A

>  <atom.prop.subpocket>  (1) 
B2 B2 B2 B2 B2 B2 B2 B2 B2 B2 GA

>  <atom.prop.environment>  (1) 
5 5 15 15 15 15 15 15 15 15 na

$$$$
3u6h_altB_chainA
     RDKit          3D

 12 12  0  0  0  0  0  0  0  0999 V2000
    7.2743   23.0296   34.0607 C   0  0  0  0  0  0  0  0  0  0  0  0
    8.7077   24.9906   34.2978 C   0  0  0  0  0  0  0  0  0  0  0  0
    8.8484   26.0128   34.6168 H   0  0  0  0  0  0  0  0  0  0  0  0
    9.5495   22.9593   33.2965 C   0  0  0  0  0  0  0  0  0  0  0  0
   10.3651   22.4208   32.8368 H   0  0  0  0  0  0  0  0  0  0  0  0
    7.4820   24.3548   34.4665 C   0  0  0  0  0  0  0  0  0  0  0  0
    6.6676   24.8977   34.9229 H   0  0  0  0  0  0  0  0  0  0  0  0
    9.7472   24.2797   33.7091 C   0  0  0  0  0  0  0  0  0  0  0  0
   10.7099   24.7491   33.5703 H   0  0  0  0  0  0  0  0  0  0  0  0
    8.3170   22.3212   33.4668 C   0  0  0  0  0  0  0  0  0  0  0  0
    8.1761   21.3001   33.1446 H   0  0  0  0  0  0  0  0  0  0  0  0
    6.0427   22.5607   34.2736 R   0  0  0  0  0  1  0  0  0  0  0  0
  1  6  2  0
  1 10  1  0
  2  3  1  0
  2  6  1  0
  2  8  2  0
  4  5  1  0
  4  8  1  0
  4 10  2  0
  6  7  1  0
  8  9  1  0
 10 11  1  0
  1 12  1  0
M  ISO  1  12  57
M  END
>  <kinase>  (1) 
MET

>  <family>  (1) 
Met

>  <group>  (1) 
TK

>  <complex_pdb>  (1) 
3u6h

>  <ligand_pdb>  (1) 
03X

>  <alt>  (1) 
B

>  <chain>  (1) 
A

>  <atom.prop.subpocket>  (1) 
B2 B2 B2 B2 B2 B2 B2 B2 B2 B2 B2 B1

>  <atom.prop.environment>  (1) 
16 16 16 16 16 16 16 16 16 16 16 na

$$$$
3u6i_chainA
     RDKit          3D

 12 11  0  0  0  0  0  0  0  0999 V2000
    5.3183   23.8026   32.4067 C   0  0  0  0  0  0  0  0  0  0  0  0
    6.1972   24.4303   32.5534 H   0  0  0  0  0  0  0  0  0  0  0  0
    4.4293   24.4304   32.3465 H   0  0  0  0  0  0  0  0  0  0  0  0
    5.4768   23.1109   31.0516 C   0  0  1  0  0  0  0  0  0  0  0  0
    4.6324   22.4404   30.8922 H   0  0  0  0  0  0  0  0  0  0  0  0
    5.5005   24.1664   29.9345 C   0  0  0  0  0  0  0  0  0  0  0  0
    6.3434   24.8401   30.0890 H   0  0  0  0  0  0  0  0  0  0  0  0
    4.5716   24.7364   29.9535 H   0  0  0  0  0  0  0  0  0  0  0  0
    5.6032   23.6713   28.9689 H   0  0  0  0  0  0  0  0  0  0  0  0
    6.6721   22.3408   31.0272 O   0  0  0  0  0  0  0  0  0  0  0  0
    7.1044   22.4489   31.8776 H   0  0  0  0  0  0  0  0  0  0  0  0
    5.1756   22.9492   33.6252 R   0  0  0  0  0  1  0  0  0  0  0  0
  1  2  1  0
  1  3  1  0
  1  4  1  0
  4  5  1  6
  4  6  1  0
  4 10  1  0
  6  7  1  0
  6  8  1  0
  6  9  1  0
 10 11  1  0
  1 12  1  0
M  ISO  1  12  31
M  END
>  <kinase>  (1) 
MET

>  <family>  (1) 
Met

>  <group>  (1) 
TK

>  <complex_pdb>  (1) 
3u6i

>  <ligand_pdb>  (1) 
044

>  <alt>  (1) 
 

>  <chain>  (1) 
A

>  <atom.prop.subpocket>  (1) 
B2 B2 B2 B2 B2 B2 B2 B2 B2 B2 B2 B1

>  <atom.prop.environment>  (1) 
8 8 8 8 8 8 8 8 8 3 3 na

$$$$
6e9w_chainB
     RDKit          3D

 18 19  0  0  0  0  0  0  0  0999 V2000
    7.8682   15.0001   38.9230 C   0  0  0  0  0  0  0  0  0  0  0  0
    8.1385   15.2395   39.9409 H   0  0  0  0  0  0  0  0  0  0  0  0
    8.8683   14.7354   37.9724 C   0  0  0  0  0  0  0  0  0  0  0  0
    9.9114   14.7749   38.2496 H   0  0  0  0  0  0  0  0  0  0  0  0
    8.4900   14.4163   36.6471 C   0  0  0  0  0  0  0  0  0  0  0  0
    7.1303   14.3745   36.2545 C   0  0  0  0  0  0  0  0  0  0  0  0
    7.7758   13.8419   34.0241 C   0  0  0  0  0  0  0  0  0  0  0  0
    7.4500   14.2115   33.0518 H   0  0  0  0  0  0  0  0  0  0  0  0
    7.9599   12.7694   33.9621 H   0  0  0  0  0  0  0  0  0  0  0  0
    6.1132   14.6675   37.1929 C   0  0  0  0  0  0  0  0  0  0  0  0
    6.7473   14.0719   34.9645 O   0  0  0  0  0  0  0  0  0  0  0  0
    9.1005   14.5534   34.4092 C   0  0  0  0  0  0  0  0  0  0  0  0
    8.9536   15.6328   34.3707 H   0  0  0  0  0  0  0  0  0  0  0  0
    9.8807   14.2676   33.7037 H   0  0  0  0  0  0  0  0  0  0  0  0
    9.4976   14.1790   35.7274 O   0  0  0  0  0  0  0  0  0  0  0  0
    6.5073   14.9525   38.5437 C   0  0  0  0  0  0  0  0  0  0  0  0
    5.7459   15.1347   39.2877 H   0  0  0  0  0  0  0  0  0  0  0  0
    4.6810   14.7558   36.6988 R   0  0  0  0  0  1  0  0  0  0  0  0
  1  2  1  0
  1  3  2  0
  1 16  1  0
  3  4  1  0
  3  5  1  0
  5  6  2  0
  5 15  1  0
  6 10  1  0
  6 11  1  0
  7  8  1  0
  7  9  1  0
  7 11  1  0
  7 12  1  0
 10 16  2  0
 12 13  1  0
 12 14  1  0
 12 15  1  0
 16 17  1  0
 10 18  1  0
M  ISO  1  18  33
M  END
>  <kinase>  (1) 
ROCK1

>  <family>  (1) 
DMPK

>  <group>  (1) 
AGC

>  <complex_pdb>  (1) 
6e9w

>  <ligand_pdb>  (1) 
J0P

>  <alt>  (1) 
 

>  <chain>  (1) 
B

>  <atom.prop.subpocket>  (1) 
B2 B2 B2 B2 B2 B2 B2 B2 B2 B2 B2 B2 B2 B2 B2 B2 B2 GA

>  <atom.prop.environment>  (1) 
16 16 16 16 16 16 16 16 16 16 16 16 16 16 16 16 16 na

$$$$
6ed6_chainB
     RDKit          3D

 18 19  0  0  0  0  0  0  0  0999 V2000
    8.0473   14.4363   37.9101 C   0  0  0  0  0  0  0  0  0  0  0  0
    8.5991   14.3263   38.8320 H   0  0  0  0  0  0  0  0  0  0  0  0
    8.7131   14.3149   36.6718 C   0  0  0  0  0  0  0  0  0  0  0  0
    9.7649   14.0725   36.6335 H   0  0  0  0  0  0  0  0  0  0  0  0
    7.9782   14.5163   35.4856 C   0  0  0  0  0  0  0  0  0  0  0  0
    6.6350   14.8163   35.5104 C   0  0  0  0  0  0  0  0  0  0  0  0
    6.6869   15.2638   33.0936 C   0  0  0  0  0  0  0  0  0  0  0  0
    6.3450   16.1346   32.5342 H   0  0  0  0  0  0  0  0  0  0  0  0
    6.5002   14.3616   32.5112 H   0  0  0  0  0  0  0  0  0  0  0  0
    5.9515   14.8516   36.7492 C   0  0  0  0  0  0  0  0  0  0  0  0
    5.9586   15.1839   34.3341 O   0  0  0  0  0  0  0  0  0  0  0  0
    8.2041   15.3933   33.3538 C   0  0  0  0  0  0  0  0  0  0  0  0
    8.4226   16.3808   33.7600 H   0  0  0  0  0  0  0  0  0  0  0  0
    8.7484   15.2562   32.4194 H   0  0  0  0  0  0  0  0  0  0  0  0
    8.6009   14.3899   34.2920 O   0  0  0  0  0  0  0  0  0  0  0  0
    6.6752   14.6985   37.9456 C   0  0  0  0  0  0  0  0  0  0  0  0
    6.1684   14.7840   38.8954 H   0  0  0  0  0  0  0  0  0  0  0  0
    4.4695   14.7899   36.7165 R   0  0  0  0  0  1  0  0  0  0  0  0
  1  2  1  0
  1  3  2  0
  1 16  1  0
  3  4  1  0
  3  5  1  0
  5  6  2  0
  5 15  1  0
  6 10  1  0
  6 11  1  0
  7  8  1  0
  7  9  1  0
  7 11  1  0
  7 12  1  0
 10 16  2  0
 12 13  1  0
 12 14  1  0
 12 15  1  0
 16 17  1  0
 10 18  1  0
M  ISO  1  18  33
M  END
>  <kinase>  (1) 
ROCK2

>  <family>  (1) 
DMPK

>  <group>  (1) 
AGC

>  <complex_pdb>  (1) 
6ed6

>  <ligand_pdb>  (1) 
J0P

>  <alt>  (1) 
 

>  <chain>  (1) 
B

>  <atom.prop.subpocket>  (1) 
B2 B2 B2 B2 B2 B2 B2 B2 B2 B2 B2 B2 B2 B2 B2 B2 B2 GA

>  <atom.prop.environment>  (1) 
16 16 16 16 16 16 16 16 16 16 16 16 16 16 16 16 16 na

$$$$
3tuc_chainA
     RDKit          3D

 15 15  0  0  0  0  0  0  0  0999 V2000
    6.7555   23.0005   34.2815 N   0  0  0  0  0  0  0  0  0  0  0  0
    6.0755   22.3351   35.2556 C   0  0  0  0  0  0  0  0  0  0  0  0
    8.2137   23.1887   34.3608 C   0  0  0  0  0  0  0  0  0  0  0  0
    8.6175   23.2418   33.3497 H   0  0  0  0  0  0  0  0  0  0  0  0
    8.6509   22.3373   34.8824 H   0  0  0  0  0  0  0  0  0  0  0  0
    6.0988   23.5245   33.1884 C   0  0  0  0  0  0  0  0  0  0  0  0
    6.6795   24.0234   32.4267 H   0  0  0  0  0  0  0  0  0  0  0  0
    4.6390   22.2227   35.1329 C   0  0  0  0  0  0  0  0  0  0  0  0
    6.6710   21.8264   36.2167 O   0  0  0  0  0  0  0  0  0  0  0  0
    4.7381   23.4391   33.0269 C   0  0  0  0  0  0  0  0  0  0  0  0
    4.2598   23.8623   32.1560 H   0  0  0  0  0  0  0  0  0  0  0  0
    3.9778   22.7890   34.0184 C   0  0  0  0  0  0  0  0  0  0  0  0
    2.9035   22.7238   33.9288 H   0  0  0  0  0  0  0  0  0  0  0  0
    3.8631   21.5477   36.1777 R   0  0  0  0  0  1  0  0  0  0  0  0
    8.5846   24.4722   35.1101 R   0  0  0  0  0  1  0  0  0  0  0  0
  1  2  1  0
  1  3  1  0
  1  6  1  0
  2  8  1  0
  2  9  2  0
  3  4  1  0
  3  5  1  0
  6  7  1  0
  6 10  2  0
  8 12  2  0
 10 11  1  0
 10 12  1  0
 12 13  1  0
  8 14  1  0
  3 15  1  0
M  ISO  2  14  50  15  45
M  END
>  <kinase>  (1) 
SYK

>  <family>  (1) 
Syk

>  <group>  (1) 
TK

>  <complex_pdb>  (1) 
3tuc

>  <ligand_pdb>  (1) 
FPW

>  <alt>  (1) 
 

>  <chain>  (1) 
A

>  <atom.prop.subpocket>  (1) 
B2 B2 B2 B2 B2 B2 B2 B2 B2 B2 B2 B2 B2 GA B1

>  <atom.prop.environment>  (1) 
9 9 8 8 8 9 9 9 9 9 9 9 9 na na

$$$$
5n9s_chainA
     RDKit          3D

 20 20  0  0  0  0  0  0  0  0999 V2000
   11.5573   19.9139   36.1778 F   0  0  0  0  0  0  0  0  0  0  0  0
   10.2674   19.7046   35.9655 C   0  0  0  0  0  0  0  0  0  0  0  0
    9.3190   20.7435   36.0285 C   0  0  0  0  0  0  0  0  0  0  0  0
    9.6281   21.7509   36.2653 H   0  0  0  0  0  0  0  0  0  0  0  0
    7.9838   20.4596   35.7831 C   0  0  0  0  0  0  0  0  0  0  0  0
    7.2363   21.2351   35.8615 H   0  0  0  0  0  0  0  0  0  0  0  0
    9.9257   18.4426   35.6033 C   0  0  0  0  0  0  0  0  0  0  0  0
   10.6785   17.6756   35.4968 H   0  0  0  0  0  0  0  0  0  0  0  0
    8.5983   18.1622   35.3746 C   0  0  0  0  0  0  0  0  0  0  0  0
    8.3054   17.1486   35.1440 H   0  0  0  0  0  0  0  0  0  0  0  0
    7.6192   19.1598   35.4340 C   0  0  0  0  0  0  0  0  0  0  0  0
    6.1901   18.8406   35.1861 C   0  0  1  0  0  0  0  0  0  0  0  0
    5.7845   19.7000   34.6523 H   0  0  0  0  0  0  0  0  0  0  0  0
    5.9200   17.6104   34.2790 C   0  0  0  0  0  0  0  0  0  0  0  0
    6.3052   16.7119   34.7610 H   0  0  0  0  0  0  0  0  0  0  0  0
    6.4181   17.7501   33.3196 H   0  0  0  0  0  0  0  0  0  0  0  0
    4.8468   17.5054   34.1193 H   0  0  0  0  0  0  0  0  0  0  0  0
    5.5246   18.5744   36.5427 C   0  0  0  0  0  0  0  0  0  0  0  0
    5.7526   17.5279   37.1253 O   0  0  0  0  0  0  0  0  0  0  0  0
    4.7206   19.5222   37.0375 R   0  0  0  0  0  1  0  0  0  0  0  0
  1  2  1  0
  2  3  2  0
  2  7  1  0
  3  4  1  0
  3  5  1  0
  5  6  1  0
  5 11  2  0
  7  8  1  0
  7  9  2  0
  9 10  1  0
  9 11  1  0
 11 12  1  0
 12 13  1  6
 12 14  1  0
 12 18  1  0
 14 15  1  0
 14 16  1  0
 14 17  1  0
 18 19  2  0
 18 20  1  0
M  ISO  1  20  32
M  END
>  <kinase>  (1) 
TTK

>  <family>  (1) 
TTK

>  <group>  (1) 
Other

>  <complex_pdb>  (1) 
5n9s

>  <ligand_pdb>  (1) 
8QW

>  <alt>  (1) 
 

>  <chain>  (1) 
A

>  <atom.prop.subpocket>  (1) 
B2 B2 B2 B2 B2 B2 B2 B2 B2 B2 B2 B2 B2 B2 B2 B2 B2 B2 B2 GA

>  <atom.prop.environment>  (1) 
16 16 16 16 16 16 16 16 16 16 16 8 8 8 8 8 8 8 8 na

$$$$
3nyx_altA_chainA
     RDKit          3D

  9  9  0  0  0  0  0  0  0  0999 V2000
    7.0538   20.0017   34.1918 S   0  0  0  0  0  0  0  0  0  0  0  0
    5.6132   20.5408   34.8035 C   0  0  0  0  0  0  0  0  0  0  0  0
    5.1319   21.5699   34.2169 C   0  0  0  0  0  0  0  0  0  0  0  0
    4.2253   22.0801   34.5073 H   0  0  0  0  0  0  0  0  0  0  0  0
    5.8868   21.9101   33.2274 C   0  0  0  0  0  0  0  0  0  0  0  0
    5.6040   22.7026   32.5504 H   0  0  0  0  0  0  0  0  0  0  0  0
    7.0448   21.2340   33.0741 C   0  0  0  0  0  0  0  0  0  0  0  0
    7.8226   21.4528   32.3576 H   0  0  0  0  0  0  0  0  0  0  0  0
    5.0012   19.8395   35.9205 R   0  0  0  0  0  1  0  0  0  0  0  0
  1  2  1  0
  1  7  1  0
  2  3  2  0
  3  4  1  0
  3  5  1  0
  5  6  1  0
  5  7  2  0
  7  8  1  0
  2  9  1  0
M  ISO  1   9  26
M  END
>  <kinase>  (1) 
TYK2

>  <family>  (1) 
JakA

>  <group>  (1) 
TK

>  <complex_pdb>  (1) 
3nyx

>  <ligand_pdb>  (1) 
TZ1

>  <alt>  (1) 
A

>  <chain>  (1) 
A

>  <atom.prop.subpocket>  (1) 
B2 B2 B2 B2 B2 B2 B2 B2 GA

>  <atom.prop.environment>  (1) 
14 14 14 14 14 14 14 14 na

$$$$
1a9u_chainA
     RDKit          3D

 17 17  0  0  0  0  0  0  0  0999 V2000
    7.0984   12.4935   37.1172 O   0  0  0  0  0  0  0  0  0  0  0  0
    8.7400   14.3370   35.6775 C   0  0  0  0  0  0  0  0  0  0  0  0
    9.1756   13.4969   35.1366 H   0  0  0  0  0  0  0  0  0  0  0  0
    9.5054   15.0933   35.8515 H   0  0  0  0  0  0  0  0  0  0  0  0
    7.9307   14.7681   35.0882 H   0  0  0  0  0  0  0  0  0  0  0  0
    8.0830   13.7546   37.2810 S   0  0  0  0  0  0  0  0  0  0  0  0
    5.7365   15.9805   39.7480 C   0  0  0  0  0  0  0  0  0  0  0  0
    4.9178   15.8090   40.4311 H   0  0  0  0  0  0  0  0  0  0  0  0
    6.3080   14.8842   39.0606 C   0  0  0  0  0  0  0  0  0  0  0  0
    5.9358   13.8833   39.2221 H   0  0  0  0  0  0  0  0  0  0  0  0
    7.3784   15.1167   38.1545 C   0  0  0  0  0  0  0  0  0  0  0  0
    7.8998   16.4183   37.9288 C   0  0  0  0  0  0  0  0  0  0  0  0
    8.7187   16.5710   37.2415 H   0  0  0  0  0  0  0  0  0  0  0  0
    7.3290   17.5071   38.6184 C   0  0  0  0  0  0  0  0  0  0  0  0
    7.7189   18.4998   38.4481 H   0  0  0  0  0  0  0  0  0  0  0  0
    6.2289   17.3294   39.5529 C   0  0  0  0  0  0  0  0  0  0  0  0
    5.6405   18.4536   40.2272 R   0  0  0  0  0  1  0  0  0  0  0  0
  1  6  2  0
  2  3  1  0
  2  4  1  0
  2  5  1  0
  6  2  1  6
  6 11  1  0
  7  8  1  0
  7  9  2  0
  7 16  1  0
  9 10  1  0
  9 11  1  0
 11 12  2  0
 12 13  1  0
 12 14  1  0
 14 15  1  0
 14 16  2  0
 16 17  1  0
M  ISO  1  17  28
M  END
>  <kinase>  (1) 
p38a

>  <family>  (1) 
MAPK

>  <group>  (1) 
CMGC

>  <complex_pdb>  (1) 
1a9u

>  <ligand_pdb>  (1) 
SB2

>  <alt>  (1) 
 

>  <chain>  (1) 
A

>  <atom.prop.subpocket>  (1) 
B2 B2 B2 B2 B2 B2 B2 B2 B2 B2 B2 B2 B2 B2 B2 B2 GA

>  <atom.prop.environment>  (1) 
16 16 16 16 16 16 16 16 16 16 16 16 16 16 16 16 na

$$$$
2rg5_chainA
     RDKit          3D

 10  9  0  0  0  0  0  0  0  0999 V2000
    4.1476   21.7024   35.8736 C   0  0  0  0  0  0  0  0  0  0  0  0
    4.2922   22.4337   32.7474 C   0  0  0  0  0  0  0  0  0  0  0  0
    3.9887   22.0065   31.7916 H   0  0  0  0  0  0  0  0  0  0  0  0
    5.1269   23.1170   32.5913 H   0  0  0  0  0  0  0  0  0  0  0  0
    3.4547   22.9771   33.1849 H   0  0  0  0  0  0  0  0  0  0  0  0
    5.0940   21.9412   34.8899 N   0  0  0  0  0  0  0  0  0  0  0  0
    5.9577   22.4423   35.0417 H   0  0  0  0  0  0  0  0  0  0  0  0
    2.9514   21.5454   35.6333 O   0  0  0  0  0  0  0  0  0  0  0  0
    4.6930   21.3875   33.6297 O   0  0  0  0  0  0  0  0  0  0  0  0
    4.5796   21.6332   37.3028 R   0  0  0  0  0  1  0  0  0  0  0  0
  1  6  1  0
  1  8  2  0
  2  3  1  0
  2  4  1  0
  2  5  1  0
  2  9  1  0
  6  7  1  0
  6  9  1  0
  1 10  1  0
M  ISO  1  10   8
M  END
>  <kinase>  (1) 
p38a

>  <family>  (1) 
MAPK

>  <group>  (1) 
CMGC

>  <complex_pdb>  (1) 
2rg5

>  <ligand_pdb>  (1) 
279

>  <alt>  (1) 
 

>  <chain>  (1) 
A

>  <atom.prop.subpocket>  (1) 
B2 B2 B2 B2 B2 B2 B2 B2 B2 GA

>  <atom.prop.environment>  (1) 
6 6 6 6 6 6 6 6 6 na

$$$$
2rg6_chainA
     RDKit          3D

 10  9  0  0  0  0  0  0  0  0999 V2000
    4.0935   21.4215   35.9271 C   0  0  0  0  0  0  0  0  0  0  0  0
    4.5258   22.4233   32.9779 C   0  0  0  0  0  0  0  0  0  0  0  0
    4.1562   22.2209   31.9726 H   0  0  0  0  0  0  0  0  0  0  0  0
    5.5088   22.8903   32.9164 H   0  0  0  0  0  0  0  0  0  0  0  0
    3.8363   23.0943   33.4903 H   0  0  0  0  0  0  0  0  0  0  0  0
    5.1077   21.4883   35.0059 N   0  0  0  0  0  0  0  0  0  0  0  0
    6.0673   21.7155   35.2245 H   0  0  0  0  0  0  0  0  0  0  0  0
    2.8990   21.4755   35.6448 O   0  0  0  0  0  0  0  0  0  0  0  0
    4.6258   21.1951   33.7057 O   0  0  0  0  0  0  0  0  0  0  0  0
    4.5171   21.4085   37.3510 R   0  0  0  0  0  1  0  0  0  0  0  0
  1  6  1  0
  1  8  2  0
  2  3  1  0
  2  4  1  0
  2  5  1  0
  2  9  1  0
  6  7  1  0
  6  9  1  0
  1 10  1  0
M  ISO  1  10  18
M  END
>  <kinase>  (1) 
p38a

>  <family>  (1) 
MAPK

>  <group>  (1) 
CMGC

>  <complex_pdb>  (1) 
2rg6

>  <ligand_pdb>  (1) 
287

>  <alt>  (1) 
 

>  <chain>  (1) 
A

>  <atom.prop.subpocket>  (1) 
B2 B2 B2 B2 B2 B2 B2 B2 B2 GA

>  <atom.prop.environment>  (1) 
6 6 6 6 6 6 6 6 6 na

$$$$
2yix_chainA
     RDKit          3D

 10  9  0  0  0  0  0  0  0  0999 V2000
    5.3914   22.5089   32.5773 C   0  0  0  0  0  0  0  0  0  0  0  0
    5.0275   22.9484   31.6485 H   0  0  0  0  0  0  0  0  0  0  0  0
    6.0869   21.7013   32.3490 H   0  0  0  0  0  0  0  0  0  0  0  0
    5.9012   23.2722   33.1651 H   0  0  0  0  0  0  0  0  0  0  0  0
    4.1832   21.9416   33.3944 C   0  0  0  0  0  0  0  0  0  0  0  0
    3.6690   21.1703   32.8210 H   0  0  0  0  0  0  0  0  0  0  0  0
    3.4833   22.7412   33.6371 H   0  0  0  0  0  0  0  0  0  0  0  0
    4.7448   21.3725   34.6176 N   0  0  0  0  0  0  0  0  0  0  0  0
    5.7447   21.2329   34.6468 H   0  0  0  0  0  0  0  0  0  0  0  0
    4.0290   21.0133   35.7259 R   0  0  0  0  0  1  0  0  0  0  0  0
  1  2  1  0
  1  3  1  0
  1  4  1  0
  1  5  1  0
  5  6  1  0
  5  7  1  0
  5  8  1  0
  8  9  1  0
  8 10  1  0
M  ISO  1  10   9
M  END
>  <kinase>  (1) 
p38a

>  <family>  (1) 
MAPK

>  <group>  (1) 
CMGC

>  <complex_pdb>  (1) 
2yix

>  <ligand_pdb>  (1) 
YIX

>  <alt>  (1) 
 

>  <chain>  (1) 
A

>  <atom.prop.subpocket>  (1) 
B2 B2 B2 B2 B2 B2 B2 B2 B2 GA

>  <atom.prop.environment>  (1) 
4 4 4 4 4 4 4 5 5 na

$$$$
2zb0_altA_chainA
     RDKit          3D

 10 10  0  0  0  0  0  0  0  0999 V2000
    4.4402   22.0438   35.7141 C   0  0  0  0  0  0  0  0  0  0  0  0
    5.2736   22.1865   34.7890 O   0  0  0  0  0  0  0  0  0  0  0  0
    4.5817   22.0893   33.7641 C   0  0  0  0  0  0  0  0  0  0  0  0
    5.2016   22.2057   32.4045 C   0  0  0  0  0  0  0  0  0  0  0  0
    6.2742   22.3704   32.5071 H   0  0  0  0  0  0  0  0  0  0  0  0
    4.7545   23.0451   31.8720 H   0  0  0  0  0  0  0  0  0  0  0  0
    5.0270   21.2863   31.8456 H   0  0  0  0  0  0  0  0  0  0  0  0
    3.2755   21.8839   33.9634 N   0  0  0  0  0  0  0  0  0  0  0  0
    3.1799   21.8483   35.2753 N   0  0  0  0  0  0  0  0  0  0  0  0
    4.6600   22.0861   37.1850 R   0  0  0  0  0  1  0  0  0  0  0  0
  1  2  1  0
  1  9  2  0
  2  3  1  0
  3  4  1  0
  3  8  2  0
  4  5  1  0
  4  6  1  0
  4  7  1  0
  8  9  1  0
  1 10  1  0
M  ISO  1  10  29
M  END
>  <kinase>  (1) 
p38a

>  <family>  (1) 
MAPK

>  <group>  (1) 
CMGC

>  <complex_pdb>  (1) 
2zb0

>  <ligand_pdb>  (1) 
GK3

>  <alt>  (1) 
A

>  <chain>  (1) 
A

>  <atom.prop.subpocket>  (1) 
B2 B2 B2 B2 B2 B2 B2 B2 B2 GA

>  <atom.prop.environment>  (1) 
14 14 14 8 8 8 8 14 14 na

$$$$
2zb1_altA_chainA
     RDKit          3D

 10 10  0  0  0  0  0  0  0  0999 V2000
    4.3890   22.0825   35.9970 C   0  0  0  0  0  0  0  0  0  0  0  0
    3.2848   21.5591   35.4066 N   0  0  0  0  0  0  0  0  0  0  0  0
    3.3817   21.8014   34.0332 N   0  0  0  0  0  0  0  0  0  0  0  0
    5.0981   22.6019   35.0953 O   0  0  0  0  0  0  0  0  0  0  0  0
    4.5494   22.4481   33.9666 C   0  0  0  0  0  0  0  0  0  0  0  0
    5.2968   23.0285   32.7952 C   0  0  0  0  0  0  0  0  0  0  0  0
    4.7382   22.8401   31.8784 H   0  0  0  0  0  0  0  0  0  0  0  0
    6.2795   22.5624   32.7241 H   0  0  0  0  0  0  0  0  0  0  0  0
    5.4136   24.1032   32.9352 H   0  0  0  0  0  0  0  0  0  0  0  0
    4.6575   22.0411   37.3693 R   0  0  0  0  0  1  0  0  0  0  0  0
  1  2  2  0
  1  4  1  0
  2  3  1  0
  3  5  2  0
  4  5  1  0
  5  6  1  0
  6  7  1  0
  6  8  1  0
  6  9  1  0
  1 10  1  0
M  ISO  1  10  37
M  END
>  <kinase>  (1) 
p38a

>  <family>  (1) 
MAPK

>  <group>  (1) 
CMGC

>  <complex_pdb>  (1) 
2zb1

>  <ligand_pdb>  (1) 
GK4

>  <alt>  (1) 
A

>  <chain>  (1) 
A

>  <atom.prop.subpocket>  (1) 
B2 B2 B2 B2 B2 B2 B2 B2 B2 GA

>  <atom.prop.environment>  (1) 
14 14 14 14 14 8 8 8 8 na

$$$$
3bv2_chainA
     RDKit          3D

 13 13  0  0  0  0  0  0  0  0999 V2000
    0.8173   24.1032   31.7293 C   0  0  0  0  0  0  0  0  0  0  0  0
    0.0048   24.0506   32.4388 H   0  0  0  0  0  0  0  0  0  0  0  0
    2.1482   23.9822   32.1860 C   0  0  0  0  0  0  0  0  0  0  0  0
    2.2660   23.7469   33.6102 C   0  0  0  0  0  0  0  0  0  0  0  0
    1.2913   23.2317   34.1893 O   0  0  0  0  0  0  0  0  0  0  0  0
    0.5282   24.2950   30.3371 C   0  0  0  0  0  0  0  0  0  0  0  0
    1.5695   24.3760   29.5218 N   0  0  0  0  0  0  0  0  0  0  0  0
    2.8655   24.2784   30.0185 C   0  0  0  0  0  0  0  0  0  0  0  0
    3.6514   24.3888   29.2861 H   0  0  0  0  0  0  0  0  0  0  0  0
    3.2849   24.0635   31.2977 C   0  0  0  0  0  0  0  0  0  0  0  0
    4.3165   23.9679   31.6027 H   0  0  0  0  0  0  0  0  0  0  0  0
    3.5370   24.0823   34.1269 R   0  0  0  0  0  1  0  0  0  0  0  0
   -0.8051   24.3740   29.9079 R   0  0  0  0  0  1  0  0  0  0  0  0
  1  2  1  0
  1  3  2  0
  1  6  1  0
  3  4  1  0
  3 10  1  0
  4  5  2  0
  6  7  2  0
  7  8  1  0
  8  9  1  0
  8 10  2  0
 10 11  1  0
  4 12  1  0
  6 13  1  0
M  ISO  2  12  54  13  64
M  END
>  <kinase>  (1) 
p38a

>  <family>  (1) 
MAPK

>  <group>  (1) 
CMGC

>  <complex_pdb>  (1) 
3bv2

>  <ligand_pdb>  (1) 
P38

>  <alt>  (1) 
 

>  <chain>  (1) 
A

>  <atom.prop.subpocket>  (1) 
B2 B2 B2 B2 B2 B2 B2 B2 B2 B2 B2 GA X-B1

>  <atom.prop.environment>  (1) 
16 16 16 6 6 16 16 16 16 16 16 na na

$$$$
3bv3_chainA
     RDKit          3D

 12 12  0  0  0  0  0  0  0  0999 V2000
    0.5977   24.0899   31.8188 C   0  0  0  0  0  0  0  0  0  0  0  0
   -0.1761   24.1349   32.5709 H   0  0  0  0  0  0  0  0  0  0  0  0
    1.9986   23.9464   32.2145 C   0  0  0  0  0  0  0  0  0  0  0  0
    0.2774   24.1655   30.5170 C   0  0  0  0  0  0  0  0  0  0  0  0
    1.2958   24.0940   29.6745 C   0  0  0  0  0  0  0  0  0  0  0  0
    1.0244   24.1615   28.6313 H   0  0  0  0  0  0  0  0  0  0  0  0
    2.5765   23.9551   29.8982 C   0  0  0  0  0  0  0  0  0  0  0  0
    3.2944   23.9106   29.0926 H   0  0  0  0  0  0  0  0  0  0  0  0
    2.9510   23.8703   31.1918 C   0  0  0  0  0  0  0  0  0  0  0  0
    3.9944   23.7426   31.4400 H   0  0  0  0  0  0  0  0  0  0  0  0
   -0.9925   24.2565   30.0755 R   0  0  0  0  0  1  0  0  0  0  0  0
    2.4111   23.8710   33.6801 R   0  0  0  0  0  1  0  0  0  0  0  0
  1  2  1  0
  1  3  2  0
  1  4  1  0
  3  9  1  0
  4  5  2  0
  5  6  1  0
  5  7  1  0
  7  8  1  0
  7  9  2  0
  9 10  1  0
  4 11  1  0
  3 12  1  0
M  ISO  2  11  65  12  56
M  END
>  <kinase>  (1) 
p38a

>  <family>  (1) 
MAPK

>  <group>  (1) 
CMGC

>  <complex_pdb>  (1) 
3bv3

>  <ligand_pdb>  (1) 
P39

>  <alt>  (1) 
 

>  <chain>  (1) 
A

>  <atom.prop.subpocket>  (1) 
B2 B2 B2 B2 B2 B2 B2 B2 B2 B2 X-B1 B1

>  <atom.prop.environment>  (1) 
16 16 16 16 16 16 16 16 16 16 na na

$$$$
3d7z_altB_chainA
     RDKit          3D

 11 11  0  0  0  0  0  0  0  0999 V2000
    5.5126   22.3786   33.1420 C   0  0  0  0  0  0  0  0  0  0  0  0
    6.0999   23.0617   33.7555 H   0  0  0  0  0  0  0  0  0  0  0  0
    5.9287   22.3453   32.1351 H   0  0  0  0  0  0  0  0  0  0  0  0
    4.0465   22.2800   33.3404 C   0  0  0  0  0  0  0  0  0  0  0  0
    3.3868   22.1744   32.4792 H   0  0  0  0  0  0  0  0  0  0  0  0
    3.5580   22.8908   34.0996 H   0  0  0  0  0  0  0  0  0  0  0  0
    4.9287   21.1403   33.7511 C   0  0  0  0  0  0  0  0  0  0  0  0
    4.9449   20.0679   33.5568 H   0  0  0  0  0  0  0  0  0  0  0  0
    5.1801   21.2511   35.1722 N   0  0  0  0  0  0  0  0  0  0  0  0
    6.1142   21.4904   35.4725 H   0  0  0  0  0  0  0  0  0  0  0  0
    4.2138   21.0479   36.1450 R   0  0  0  0  0  1  0  0  0  0  0  0
  1  2  1  0
  1  3  1  0
  1  4  1  0
  1  7  1  0
  4  5  1  0
  4  6  1  0
  4  7  1  0
  7  8  1  0
  7  9  1  0
  9 10  1  0
  9 11  1  0
M  ISO  1  11  26
M  END
>  <kinase>  (1) 
p38a

>  <family>  (1) 
MAPK

>  <group>  (1) 
CMGC

>  <complex_pdb>  (1) 
3d7z

>  <ligand_pdb>  (1) 
GK5

>  <alt>  (1) 
B

>  <chain>  (1) 
A

>  <atom.prop.subpocket>  (1) 
B2 B2 B2 B2 B2 B2 B2 B2 B2 B2 GA

>  <atom.prop.environment>  (1) 
15 15 15 15 15 15 15 15 5 5 na

$$$$
3ds6_chainA
     RDKit          3D

 11 11  0  0  0  0  0  0  0  0999 V2000
    4.9221   20.6237   33.9216 C   0  0  0  0  0  0  0  0  0  0  0  0
    4.7745   19.5494   33.8104 H   0  0  0  0  0  0  0  0  0  0  0  0
    5.7229   21.6020   33.2191 C   0  0  0  0  0  0  0  0  0  0  0  0
    6.1018   21.3815   32.2212 H   0  0  0  0  0  0  0  0  0  0  0  0
    6.4558   22.1984   33.7625 H   0  0  0  0  0  0  0  0  0  0  0  0
    4.3064   21.8321   33.4225 C   0  0  0  0  0  0  0  0  0  0  0  0
    3.9736   22.6020   34.1186 H   0  0  0  0  0  0  0  0  0  0  0  0
    3.6196   21.7851   32.5773 H   0  0  0  0  0  0  0  0  0  0  0  0
    5.0476   20.7116   35.3271 N   0  0  0  0  0  0  0  0  0  0  0  0
    5.9695   20.9549   35.6602 H   0  0  0  0  0  0  0  0  0  0  0  0
    4.1319   20.5216   36.2821 R   0  0  0  0  0  1  0  0  0  0  0  0
  1  2  1  0
  1  3  1  0
  1  6  1  0
  1  9  1  0
  3  4  1  0
  3  5  1  0
  3  6  1  0
  6  7  1  0
  6  8  1  0
  9 10  1  0
  9 11  1  0
M  ISO  1  11  28
M  END
>  <kinase>  (1) 
p38a

>  <family>  (1) 
MAPK

>  <group>  (1) 
CMGC

>  <complex_pdb>  (1) 
3ds6

>  <ligand_pdb>  (1) 
A17

>  <alt>  (1) 
 

>  <chain>  (1) 
A

>  <atom.prop.subpocket>  (1) 
B2 B2 B2 B2 B2 B2 B2 B2 B2 B2 GA

>  <atom.prop.environment>  (1) 
15 15 15 15 15 15 15 15 5 5 na

$$$$
3dt1_chainA
     RDKit          3D

 11 11  0  0  0  0  0  0  0  0999 V2000
    4.9314   21.2266   34.2072 C   0  0  0  0  0  0  0  0  0  0  0  0
    5.0594   20.1455   34.1525 H   0  0  0  0  0  0  0  0  0  0  0  0
    3.9414   22.1826   33.7467 C   0  0  0  0  0  0  0  0  0  0  0  0
    3.4884   22.8793   34.4520 H   0  0  0  0  0  0  0  0  0  0  0  0
    3.2011   21.8844   33.0043 H   0  0  0  0  0  0  0  0  0  0  0  0
    5.3288   22.3435   33.3608 C   0  0  0  0  0  0  0  0  0  0  0  0
    5.6320   22.1649   32.3291 H   0  0  0  0  0  0  0  0  0  0  0  0
    5.9193   23.1598   33.7768 H   0  0  0  0  0  0  0  0  0  0  0  0
    5.2719   21.2310   35.5842 N   0  0  0  0  0  0  0  0  0  0  0  0
    6.2143   21.4435   35.8788 H   0  0  0  0  0  0  0  0  0  0  0  0
    4.3303   20.9509   36.4817 R   0  0  0  0  0  1  0  0  0  0  0  0
  1  2  1  0
  1  3  1  0
  1  6  1  0
  1  9  1  0
  3  4  1  0
  3  5  1  0
  3  6  1  0
  6  7  1  0
  6  8  1  0
  9 10  1  0
  9 11  1  0
M  ISO  1  11  25
M  END
>  <kinase>  (1) 
p38a

>  <family>  (1) 
MAPK

>  <group>  (1) 
CMGC

>  <complex_pdb>  (1) 
3dt1

>  <ligand_pdb>  (1) 
P40

>  <alt>  (1) 
 

>  <chain>  (1) 
A

>  <atom.prop.subpocket>  (1) 
B2 B2 B2 B2 B2 B2 B2 B2 B2 B2 GA

>  <atom.prop.environment>  (1) 
15 15 15 15 15 15 15 15 5 5 na

$$$$
3e92_chainA
     RDKit          3D

 11 11  0  0  0  0  0  0  0  0999 V2000
    5.4225   22.2481   33.2076 C   0  0  0  0  0  0  0  0  0  0  0  0
    5.9929   22.9055   33.8638 H   0  0  0  0  0  0  0  0  0  0  0  0
    5.8346   22.2943   32.1995 H   0  0  0  0  0  0  0  0  0  0  0  0
    3.9483   22.1001   33.4022 C   0  0  0  0  0  0  0  0  0  0  0  0
    3.2873   22.0321   32.5382 H   0  0  0  0  0  0  0  0  0  0  0  0
    3.4456   22.6433   34.2024 H   0  0  0  0  0  0  0  0  0  0  0  0
    4.8860   20.9571   33.7327 C   0  0  0  0  0  0  0  0  0  0  0  0
    4.9412   19.9007   33.4700 H   0  0  0  0  0  0  0  0  0  0  0  0
    5.1365   21.0236   35.1586 N   0  0  0  0  0  0  0  0  0  0  0  0
    6.0822   21.2006   35.4656 H   0  0  0  0  0  0  0  0  0  0  0  0
    4.1585   20.8592   36.1273 R   0  0  0  0  0  1  0  0  0  0  0  0
  1  2  1  0
  1  3  1  0
  1  4  1  0
  1  7  1  0
  4  5  1  0
  4  6  1  0
  4  7  1  0
  7  8  1  0
  7  9  1  0
  9 10  1  0
  9 11  1  0
M  ISO  1  11  34
M  END
>  <kinase>  (1) 
p38a

>  <family>  (1) 
MAPK

>  <group>  (1) 
CMGC

>  <complex_pdb>  (1) 
3e92

>  <ligand_pdb>  (1) 
G6A

>  <alt>  (1) 
 

>  <chain>  (1) 
A

>  <atom.prop.subpocket>  (1) 
B2 B2 B2 B2 B2 B2 B2 B2 B2 B2 GA

>  <atom.prop.environment>  (1) 
15 15 15 15 15 15 15 15 5 5 na

$$$$
3fkl_chainA
     RDKit          3D

 11 11  0  0  0  0  0  0  0  0999 V2000
    4.6884   21.3284   33.6429 C   0  0  0  0  0  0  0  0  0  0  0  0
    4.5754   20.2652   33.4309 H   0  0  0  0  0  0  0  0  0  0  0  0
    5.4153   22.5002   32.9910 C   0  0  0  0  0  0  0  0  0  0  0  0
    5.7599   22.4220   31.9599 H   0  0  0  0  0  0  0  0  0  0  0  0
    6.1281   23.0886   33.5687 H   0  0  0  0  0  0  0  0  0  0  0  0
    4.9750   21.3469   35.0839 N   0  0  0  0  0  0  0  0  0  0  0  0
    5.9302   21.4871   35.3806 H   0  0  0  0  0  0  0  0  0  0  0  0
    3.9256   22.6013   33.2901 C   0  0  0  0  0  0  0  0  0  0  0  0
    3.5725   23.2620   34.0819 H   0  0  0  0  0  0  0  0  0  0  0  0
    3.2042   22.5954   32.4731 H   0  0  0  0  0  0  0  0  0  0  0  0
    4.0307   21.1867   36.0282 R   0  0  0  0  0  1  0  0  0  0  0  0
  1  2  1  0
  1  3  1  0
  1  6  1  0
  1  8  1  0
  3  4  1  0
  3  5  1  0
  3  8  1  0
  6  7  1  0
  8  9  1  0
  8 10  1  0
  6 11  1  0
M  ISO  1  11  17
M  END
>  <kinase>  (1) 
p38a

>  <family>  (1) 
MAPK

>  <group>  (1) 
CMGC

>  <complex_pdb>  (1) 
3fkl

>  <ligand_pdb>  (1) 
FKL

>  <alt>  (1) 
 

>  <chain>  (1) 
A

>  <atom.prop.subpocket>  (1) 
B2 B2 B2 B2 B2 B2 B2 B2 B2 B2 GA

>  <atom.prop.environment>  (1) 
15 15 15 15 15 5 5 15 15 15 na

$$$$
3gfe_chainA
     RDKit          3D

 11 11  0  0  0  0  0  0  0  0999 V2000
    5.0995   21.2313   35.5186 N   0  0  0  0  0  0  0  0  0  0  0  0
    6.0301   21.4178   35.8640 H   0  0  0  0  0  0  0  0  0  0  0  0
    4.0620   22.2507   33.4419 C   0  0  0  0  0  0  0  0  0  0  0  0
    3.3932   22.0328   32.6092 H   0  0  0  0  0  0  0  0  0  0  0  0
    3.6127   23.0126   34.0789 H   0  0  0  0  0  0  0  0  0  0  0  0
    5.5751   22.2251   33.2329 C   0  0  0  0  0  0  0  0  0  0  0  0
    6.2051   22.9688   33.7208 H   0  0  0  0  0  0  0  0  0  0  0  0
    5.9856   21.9890   32.2511 H   0  0  0  0  0  0  0  0  0  0  0  0
    4.9003   21.1305   34.0634 C   0  0  0  0  0  0  0  0  0  0  0  0
    4.8798   20.0411   34.0347 H   0  0  0  0  0  0  0  0  0  0  0  0
    4.1110   21.0885   36.4039 R   0  0  0  0  0  1  0  0  0  0  0  0
  1  2  1  0
  1  9  1  0
  3  4  1  0
  3  5  1  0
  3  6  1  0
  3  9  1  0
  6  7  1  0
  6  8  1  0
  6  9  1  0
  9 10  1  0
  1 11  1  0
M  ISO  1  11  31
M  END
>  <kinase>  (1) 
p38a

>  <family>  (1) 
MAPK

>  <group>  (1) 
CMGC

>  <complex_pdb>  (1) 
3gfe

>  <ligand_pdb>  (1) 
P37

>  <alt>  (1) 
 

>  <chain>  (1) 
A

>  <atom.prop.subpocket>  (1) 
B2 B2 B2 B2 B2 B2 B2 B2 B2 B2 GA

>  <atom.prop.environment>  (1) 
5 5 15 15 15 15 15 15 15 15 na

$$$$
3iph_altA_chainA
     RDKit          3D

 11 11  0  0  0  0  0  0  0  0999 V2000
    5.0579   21.3303   35.1661 N   0  0  0  0  0  0  0  0  0  0  0  0
    6.0167   21.4871   35.4423 H   0  0  0  0  0  0  0  0  0  0  0  0
    4.7716   21.2129   33.7676 C   0  0  0  0  0  0  0  0  0  0  0  0
    4.7620   20.1383   33.5851 H   0  0  0  0  0  0  0  0  0  0  0  0
    3.8964   22.3576   33.3969 C   0  0  0  0  0  0  0  0  0  0  0  0
    3.4755   22.9971   34.1728 H   0  0  0  0  0  0  0  0  0  0  0  0
    3.1799   22.2558   32.5818 H   0  0  0  0  0  0  0  0  0  0  0  0
    5.3705   22.3993   33.1036 C   0  0  0  0  0  0  0  0  0  0  0  0
    5.7247   22.3284   32.0752 H   0  0  0  0  0  0  0  0  0  0  0  0
    6.0203   23.0697   33.6662 H   0  0  0  0  0  0  0  0  0  0  0  0
    4.1069   21.2424   36.1558 R   0  0  0  0  0  1  0  0  0  0  0  0
  1  2  1  0
  1  3  1  0
  3  4  1  0
  3  5  1  0
  3  8  1  0
  5  6  1  0
  5  7  1  0
  5  8  1  0
  8  9  1  0
  8 10  1  0
  1 11  1  0
M  ISO  1  11  19
M  END
>  <kinase>  (1) 
p38a

>  <family>  (1) 
MAPK

>  <group>  (1) 
CMGC

>  <complex_pdb>  (1) 
3iph

>  <ligand_pdb>  (1) 
G11

>  <alt>  (1) 
A

>  <chain>  (1) 
A

>  <atom.prop.subpocket>  (1) 
B2 B2 B2 B2 B2 B2 B2 B2 B2 B2 GA

>  <atom.prop.environment>  (1) 
5 5 15 15 15 15 15 15 15 15 na

$$$$
3itz_chainA
     RDKit          3D

 11 11  0  0  0  0  0  0  0  0999 V2000
    4.1181   21.8298   33.4446 C   0  0  0  0  0  0  0  0  0  0  0  0
    3.4899   21.5601   32.5956 H   0  0  0  0  0  0  0  0  0  0  0  0
    3.6093   22.5808   34.0489 H   0  0  0  0  0  0  0  0  0  0  0  0
    5.6334   21.8804   33.2845 C   0  0  0  0  0  0  0  0  0  0  0  0
    6.2071   22.6667   33.7751 H   0  0  0  0  0  0  0  0  0  0  0  0
    6.0877   21.6459   32.3219 H   0  0  0  0  0  0  0  0  0  0  0  0
    4.9884   20.7663   34.1201 C   0  0  0  0  0  0  0  0  0  0  0  0
    5.0230   19.6768   34.1162 H   0  0  0  0  0  0  0  0  0  0  0  0
    5.1362   20.8980   35.5811 N   0  0  0  0  0  0  0  0  0  0  0  0
    6.0601   21.0663   35.9530 H   0  0  0  0  0  0  0  0  0  0  0  0
    4.1148   20.8072   36.4437 R   0  0  0  0  0  1  0  0  0  0  0  0
  1  2  1  0
  1  3  1  0
  1  4  1  0
  1  7  1  0
  4  5  1  0
  4  6  1  0
  4  7  1  0
  7  8  1  0
  7  9  1  0
  9 10  1  0
  9 11  1  0
M  ISO  1  11  25
M  END
>  <kinase>  (1) 
p38a

>  <family>  (1) 
MAPK

>  <group>  (1) 
CMGC

>  <complex_pdb>  (1) 
3itz

>  <ligand_pdb>  (1) 
P66

>  <alt>  (1) 
 

>  <chain>  (1) 
A

>  <atom.prop.subpocket>  (1) 
B2 B2 B2 B2 B2 B2 B2 B2 B2 B2 GA

>  <atom.prop.environment>  (1) 
15 15 15 15 15 15 15 15 5 5 na

$$$$
3lhj_chainA
     RDKit          3D

 11 11  0  0  0  0  0  0  0  0999 V2000
    5.0546   21.0618   34.1814 C   0  0  0  0  0  0  0  0  0  0  0  0
    5.1030   19.9749   34.1150 H   0  0  0  0  0  0  0  0  0  0  0  0
    5.7024   22.2171   33.4227 C   0  0  0  0  0  0  0  0  0  0  0  0
    6.1714   22.0385   32.4551 H   0  0  0  0  0  0  0  0  0  0  0  0
    6.2654   22.9771   33.9645 H   0  0  0  0  0  0  0  0  0  0  0  0
    4.1822   22.1517   33.5580 C   0  0  0  0  0  0  0  0  0  0  0  0
    3.6605   22.8643   34.1969 H   0  0  0  0  0  0  0  0  0  0  0  0
    3.5665   21.9258   32.6874 H   0  0  0  0  0  0  0  0  0  0  0  0
    5.1715   21.1074   35.6491 N   0  0  0  0  0  0  0  0  0  0  0  0
    6.0232   21.4588   36.0630 H   0  0  0  0  0  0  0  0  0  0  0  0
    4.1880   20.6993   36.4434 R   0  0  0  0  0  1  0  0  0  0  0  0
  1  2  1  0
  1  3  1  0
  1  6  1  0
  1  9  1  0
  3  4  1  0
  3  5  1  0
  3  6  1  0
  6  7  1  0
  6  8  1  0
  9 10  1  0
  9 11  1  0
M  ISO  1  11  23
M  END
>  <kinase>  (1) 
p38a

>  <family>  (1) 
MAPK

>  <group>  (1) 
CMGC

>  <complex_pdb>  (1) 
3lhj

>  <ligand_pdb>  (1) 
LHJ

>  <alt>  (1) 
 

>  <chain>  (1) 
A

>  <atom.prop.subpocket>  (1) 
B2 B2 B2 B2 B2 B2 B2 B2 B2 B2 GA

>  <atom.prop.environment>  (1) 
15 15 15 15 15 15 15 15 5 5 na

$$$$
3mvl_chainA
     RDKit          3D

 11 11  0  0  0  0  0  0  0  0999 V2000
    4.7067   21.5469   34.6612 N   0  0  0  0  0  0  0  0  0  0  0  0
    5.5996   21.0761   34.6267 H   0  0  0  0  0  0  0  0  0  0  0  0
    4.2655   22.3801   33.5690 C   0  0  0  0  0  0  0  0  0  0  0  0
    3.5232   23.0681   33.9736 H   0  0  0  0  0  0  0  0  0  0  0  0
    4.5710   21.3160   32.5367 C   0  0  0  0  0  0  0  0  0  0  0  0
    3.8371   21.0621   31.7719 H   0  0  0  0  0  0  0  0  0  0  0  0
    5.1309   20.4228   32.8138 H   0  0  0  0  0  0  0  0  0  0  0  0
    5.2336   22.6520   32.5337 C   0  0  0  0  0  0  0  0  0  0  0  0
    6.2900   22.7305   32.7904 H   0  0  0  0  0  0  0  0  0  0  0  0
    4.9962   23.3698   31.7485 H   0  0  0  0  0  0  0  0  0  0  0  0
    3.8776   21.4114   35.7511 R   0  0  0  0  0  1  0  0  0  0  0  0
  1  2  1  0
  1  3  1  0
  3  4  1  0
  3  5  1  0
  3  8  1  0
  5  6  1  0
  5  7  1  0
  5  8  1  0
  8  9  1  0
  8 10  1  0
  1 11  1  0
M  ISO  1  11  40
M  END
>  <kinase>  (1) 
p38a

>  <family>  (1) 
MAPK

>  <group>  (1) 
CMGC

>  <complex_pdb>  (1) 
3mvl

>  <ligand_pdb>  (1) 
38P

>  <alt>  (1) 
 

>  <chain>  (1) 
A

>  <atom.prop.subpocket>  (1) 
B2 B2 B2 B2 B2 B2 B2 B2 B2 B2 GA

>  <atom.prop.environment>  (1) 
5 5 15 15 15 15 15 15 15 15 na

$$$$
3mvm_chainB
     RDKit          3D

 10 10  0  0  0  0  0  0  0  0999 V2000
    5.2600   21.4380   35.2680 N   0  0  0  0  0  0  0  0  0  0  0  0
    6.2111   21.3176   35.5856 H   0  0  0  0  0  0  0  0  0  0  0  0
    5.0412   21.6958   33.9567 C   0  0  0  0  0  0  0  0  0  0  0  0
    4.1455   22.5288   33.4208 N   0  0  0  0  0  0  0  0  0  0  0  0
    4.3045   22.4490   32.0248 O   0  0  0  0  0  0  0  0  0  0  0  0
    5.2960   21.5654   31.7405 C   0  0  0  0  0  0  0  0  0  0  0  0
    5.6348   21.3043   30.7488 H   0  0  0  0  0  0  0  0  0  0  0  0
    5.7726   21.0837   32.8490 C   0  0  0  0  0  0  0  0  0  0  0  0
    6.5686   20.3590   32.9366 H   0  0  0  0  0  0  0  0  0  0  0  0
    4.2593   21.3352   36.1680 R   0  0  0  0  0  1  0  0  0  0  0  0
  1  2  1  0
  1  3  1  0
  3  4  2  0
  3  8  1  0
  4  5  1  0
  5  6  1  0
  6  7  1  0
  6  8  2  0
  8  9  1  0
  1 10  1  0
M  ISO  1  10  40
M  END
>  <kinase>  (1) 
p38a

>  <family>  (1) 
MAPK

>  <group>  (1) 
CMGC

>  <complex_pdb>  (1) 
3mvm

>  <ligand_pdb>  (1) 
39P

>  <alt>  (1) 
 

>  <chain>  (1) 
B

>  <atom.prop.subpocket>  (1) 
B2 B2 B2 B2 B2 B2 B2 B2 B2 GA

>  <atom.prop.environment>  (1) 
5 5 14 14 14 14 14 14 14 na

$$$$
3nww_chainA
     RDKit          3D

 10  9  0  0  0  0  0  0  0  0999 V2000
    4.8226   21.3018   34.4178 N   0  0  0  0  0  0  0  0  0  0  0  0
    5.8089   21.0988   34.4967 H   0  0  0  0  0  0  0  0  0  0  0  0
    4.2374   21.6793   33.1254 C   0  0  0  0  0  0  0  0  0  0  0  0
    3.1896   21.9478   33.2603 H   0  0  0  0  0  0  0  0  0  0  0  0
    4.3116   20.8436   32.4296 H   0  0  0  0  0  0  0  0  0  0  0  0
    5.0145   22.8836   32.5742 C   0  0  0  0  0  0  0  0  0  0  0  0
    4.9374   23.7165   33.2730 H   0  0  0  0  0  0  0  0  0  0  0  0
    4.5952   23.1769   31.6117 H   0  0  0  0  0  0  0  0  0  0  0  0
    6.0624   22.6123   32.4464 H   0  0  0  0  0  0  0  0  0  0  0  0
    4.0184   21.2313   35.4966 R   0  0  0  0  0  1  0  0  0  0  0  0
  1  2  1  0
  1  3  1  0
  3  4  1  0
  3  5  1  0
  3  6  1  0
  6  7  1  0
  6  8  1  0
  6  9  1  0
  1 10  1  0
M  ISO  1  10  58
M  END
>  <kinase>  (1) 
p38a

>  <family>  (1) 
MAPK

>  <group>  (1) 
CMGC

>  <complex_pdb>  (1) 
3nww

>  <ligand_pdb>  (1) 
3NW

>  <alt>  (1) 
 

>  <chain>  (1) 
A

>  <atom.prop.subpocket>  (1) 
B2 B2 B2 B2 B2 B2 B2 B2 B2 GA

>  <atom.prop.environment>  (1) 
5 5 4 4 4 4 4 4 4 na

$$$$
3ocg_chainA
     RDKit          3D

  8  8  0  0  0  0  0  0  0  0999 V2000
    4.9350   21.6463   34.3678 C   0  0  0  0  0  0  0  0  0  0  0  0
    4.0289   22.3864   33.7541 N   0  0  0  0  0  0  0  0  0  0  0  0
    4.2813   22.3729   32.2530 O   0  0  0  0  0  0  0  0  0  0  0  0
    5.2884   21.6449   32.1039 C   0  0  0  0  0  0  0  0  0  0  0  0
    5.7425   21.4189   31.1504 H   0  0  0  0  0  0  0  0  0  0  0  0
    5.7507   21.1605   33.3374 C   0  0  0  0  0  0  0  0  0  0  0  0
    6.6044   20.5127   33.4717 H   0  0  0  0  0  0  0  0  0  0  0  0
    5.0833   21.3863   35.6755 R   0  0  0  0  0  1  0  0  0  0  0  0
  1  2  2  0
  1  6  1  0
  2  3  1  0
  3  4  1  0
  4  5  1  0
  4  6  2  0
  6  7  1  0
  1  8  1  0
M  ISO  1   8  24
M  END
>  <kinase>  (1) 
p38a

>  <family>  (1) 
MAPK

>  <group>  (1) 
CMGC

>  <complex_pdb>  (1) 
3ocg

>  <ligand_pdb>  (1) 
OCG

>  <alt>  (1) 
 

>  <chain>  (1) 
A

>  <atom.prop.subpocket>  (1) 
B2 B2 B2 B2 B2 B2 B2 GA

>  <atom.prop.environment>  (1) 
14 14 14 14 14 14 14 na

$$$$
3rin_chainA
     RDKit          3D

 11 11  0  0  0  0  0  0  0  0999 V2000
    5.2270   20.6960   35.3089 N   0  0  0  0  0  0  0  0  0  0  0  0
    6.1895   20.7485   35.6105 H   0  0  0  0  0  0  0  0  0  0  0  0
    4.8855   20.7085   33.8997 C   0  0  0  0  0  0  0  0  0  0  0  0
    4.7776   19.6273   33.8141 H   0  0  0  0  0  0  0  0  0  0  0  0
    4.0951   21.9494   33.4590 C   0  0  0  0  0  0  0  0  0  0  0  0
    3.8236   22.7086   34.1924 H   0  0  0  0  0  0  0  0  0  0  0  0
    3.2955   21.8510   32.7248 H   0  0  0  0  0  0  0  0  0  0  0  0
    5.5511   21.8000   33.0223 C   0  0  0  0  0  0  0  0  0  0  0  0
    5.7891   21.5913   31.9793 H   0  0  0  0  0  0  0  0  0  0  0  0
    6.3172   22.4489   33.4469 H   0  0  0  0  0  0  0  0  0  0  0  0
    4.2320   20.6131   36.1976 R   0  0  0  0  0  1  0  0  0  0  0  0
  1  2  1  0
  1  3  1  0
  3  4  1  0
  3  5  1  0
  3  8  1  0
  5  6  1  0
  5  7  1  0
  5  8  1  0
  8  9  1  0
  8 10  1  0
  1 11  1  0
M  ISO  1  11  13
M  END
>  <kinase>  (1) 
p38a

>  <family>  (1) 
MAPK

>  <group>  (1) 
CMGC

>  <complex_pdb>  (1) 
3rin

>  <ligand_pdb>  (1) 
I2O

>  <alt>  (1) 
 

>  <chain>  (1) 
A

>  <atom.prop.subpocket>  (1) 
B2 B2 B2 B2 B2 B2 B2 B2 B2 B2 GA

>  <atom.prop.environment>  (1) 
5 5 15 15 15 15 15 15 15 15 na

$$$$
3s3i_chainA
     RDKit          3D

 11 11  0  0  0  0  0  0  0  0999 V2000
    5.1424   20.8899   35.3388 N   0  0  0  0  0  0  0  0  0  0  0  0
    6.1006   20.9689   35.6481 H   0  0  0  0  0  0  0  0  0  0  0  0
    4.8810   20.8783   33.9041 C   0  0  0  0  0  0  0  0  0  0  0  0
    4.9305   19.7964   33.7818 H   0  0  0  0  0  0  0  0  0  0  0  0
    3.9590   21.9698   33.4606 C   0  0  0  0  0  0  0  0  0  0  0  0
    3.5311   22.6520   34.1952 H   0  0  0  0  0  0  0  0  0  0  0  0
    3.2294   21.7789   32.6737 H   0  0  0  0  0  0  0  0  0  0  0  0
    5.4406   22.0538   33.1186 C   0  0  0  0  0  0  0  0  0  0  0  0
    5.7742   21.9166   32.0901 H   0  0  0  0  0  0  0  0  0  0  0  0
    6.0759   22.7896   33.6115 H   0  0  0  0  0  0  0  0  0  0  0  0
    4.1778   20.8010   36.2743 R   0  0  0  0  0  1  0  0  0  0  0  0
  1  2  1  0
  1  3  1  0
  3  4  1  0
  3  5  1  0
  3  8  1  0
  5  6  1  0
  5  7  1  0
  5  8  1  0
  8  9  1  0
  8 10  1  0
  1 11  1  0
M  ISO  1  11  26
M  END
>  <kinase>  (1) 
p38a

>  <family>  (1) 
MAPK

>  <group>  (1) 
CMGC

>  <complex_pdb>  (1) 
3s3i

>  <ligand_pdb>  (1) 
CQ0

>  <alt>  (1) 
 

>  <chain>  (1) 
A

>  <atom.prop.subpocket>  (1) 
B2 B2 B2 B2 B2 B2 B2 B2 B2 B2 GA

>  <atom.prop.environment>  (1) 
5 5 15 15 15 15 15 15 15 15 na

$$$$
3s4q_chainA
     RDKit          3D

 11 11  0  0  0  0  0  0  0  0999 V2000
    4.9568   21.7940   35.1450 N   0  0  0  0  0  0  0  0  0  0  0  0
    5.8662   22.0693   35.4874 H   0  0  0  0  0  0  0  0  0  0  0  0
    4.7512   21.6984   33.6998 C   0  0  0  0  0  0  0  0  0  0  0  0
    4.5193   20.6368   33.7845 H   0  0  0  0  0  0  0  0  0  0  0  0
    5.5863   22.5168   32.8103 C   0  0  0  0  0  0  0  0  0  0  0  0
    5.9494   22.1025   31.8698 H   0  0  0  0  0  0  0  0  0  0  0  0
    6.3414   23.1813   33.2303 H   0  0  0  0  0  0  0  0  0  0  0  0
    4.1557   22.8299   32.9742 C   0  0  0  0  0  0  0  0  0  0  0  0
    3.8521   23.7259   33.5156 H   0  0  0  0  0  0  0  0  0  0  0  0
    3.4601   22.6471   32.1551 H   0  0  0  0  0  0  0  0  0  0  0  0
    3.9861   21.5308   36.0354 R   0  0  0  0  0  1  0  0  0  0  0  0
  1  2  1  0
  1  3  1  0
  3  4  1  0
  3  5  1  0
  3  8  1  0
  5  6  1  0
  5  7  1  0
  5  8  1  0
  8  9  1  0
  8 10  1  0
  1 11  1  0
M  ISO  1  11  46
M  END
>  <kinase>  (1) 
p38a

>  <family>  (1) 
MAPK

>  <group>  (1) 
CMGC

>  <complex_pdb>  (1) 
3s4q

>  <ligand_pdb>  (1) 
NK0

>  <alt>  (1) 
 

>  <chain>  (1) 
A

>  <atom.prop.subpocket>  (1) 
B2 B2 B2 B2 B2 B2 B2 B2 B2 B2 GA

>  <atom.prop.environment>  (1) 
5 5 15 15 15 15 15 15 15 15 na

$$$$
3u8w_chainA
     RDKit          3D

 11 11  0  0  0  0  0  0  0  0999 V2000
    5.4980   21.9843   33.4727 C   0  0  0  0  0  0  0  0  0  0  0  0
    5.9842   22.7938   34.0171 H   0  0  0  0  0  0  0  0  0  0  0  0
    6.0144   21.8209   32.5268 H   0  0  0  0  0  0  0  0  0  0  0  0
    3.9830   21.8116   33.5547 C   0  0  0  0  0  0  0  0  0  0  0  0
    3.4187   21.5253   32.6672 H   0  0  0  0  0  0  0  0  0  0  0  0
    3.3884   22.4982   34.1574 H   0  0  0  0  0  0  0  0  0  0  0  0
    4.9044   20.7946   34.2373 C   0  0  0  0  0  0  0  0  0  0  0  0
    5.0224   19.7117   34.1973 H   0  0  0  0  0  0  0  0  0  0  0  0
    4.9849   20.8359   35.7187 N   0  0  0  0  0  0  0  0  0  0  0  0
    5.8808   21.0391   36.1385 H   0  0  0  0  0  0  0  0  0  0  0  0
    3.9413   20.6199   36.5361 R   0  0  0  0  0  1  0  0  0  0  0  0
  1  2  1  0
  1  3  1  0
  1  4  1  0
  1  7  1  0
  4  5  1  0
  4  6  1  0
  4  7  1  0
  7  8  1  0
  7  9  1  0
  9 10  1  0
  9 11  1  0
M  ISO  1  11  10
M  END
>  <kinase>  (1) 
p38a

>  <family>  (1) 
MAPK

>  <group>  (1) 
CMGC

>  <complex_pdb>  (1) 
3u8w

>  <ligand_pdb>  (1) 
09J

>  <alt>  (1) 
 

>  <chain>  (1) 
A

>  <atom.prop.subpocket>  (1) 
B2 B2 B2 B2 B2 B2 B2 B2 B2 B2 GA

>  <atom.prop.environment>  (1) 
15 15 15 15 15 15 15 15 5 5 na

$$$$
3uvp_altA_chainA
     RDKit          3D

 12 12  0  0  0  0  0  0  0  0999 V2000
    5.6936   21.3477   31.9772 C   0  0  0  0  0  0  0  0  0  0  0  0
    6.0582   21.4954   30.9714 H   0  0  0  0  0  0  0  0  0  0  0  0
    4.7260   22.2129   32.4876 C   0  0  0  0  0  0  0  0  0  0  0  0
    4.3403   23.0161   31.8774 H   0  0  0  0  0  0  0  0  0  0  0  0
    6.2000   20.2944   32.7413 C   0  0  0  0  0  0  0  0  0  0  0  0
    6.9469   19.6309   32.3309 H   0  0  0  0  0  0  0  0  0  0  0  0
    4.2583   22.0358   33.7911 C   0  0  0  0  0  0  0  0  0  0  0  0
    3.5120   22.7013   34.1991 H   0  0  0  0  0  0  0  0  0  0  0  0
    5.7303   20.1101   34.0385 C   0  0  0  0  0  0  0  0  0  0  0  0
    6.1061   19.2950   34.6391 H   0  0  0  0  0  0  0  0  0  0  0  0
    4.7693   20.9835   34.5639 C   0  0  0  0  0  0  0  0  0  0  0  0
    4.2504   20.7665   35.9823 R   0  0  0  0  0  1  0  0  0  0  0  0
  1  2  1  0
  1  3  2  0
  1  5  1  0
  3  4  1  0
  3  7  1  0
  5  6  1  0
  5  9  2  0
  7  8  1  0
  7 11  2  0
  9 10  1  0
  9 11  1  0
 11 12  1  0
M  ISO  1  12  42
M  END
>  <kinase>  (1) 
p38a

>  <family>  (1) 
MAPK

>  <group>  (1) 
CMGC

>  <complex_pdb>  (1) 
3uvp

>  <ligand_pdb>  (1) 
048

>  <alt>  (1) 
A

>  <chain>  (1) 
A

>  <atom.prop.subpocket>  (1) 
B2 B2 B2 B2 B2 B2 B2 B2 B2 B2 B2 GA

>  <atom.prop.environment>  (1) 
16 16 16 16 16 16 16 16 16 16 16 na

$$$$
3uvq_altA_chainA
     RDKit          3D

 12 12  0  0  0  0  0  0  0  0999 V2000
    5.9921   20.6206   32.0427 C   0  0  0  0  0  0  0  0  0  0  0  0
    6.3805   20.6459   31.0353 H   0  0  0  0  0  0  0  0  0  0  0  0
    6.3358   19.5838   32.8999 C   0  0  0  0  0  0  0  0  0  0  0  0
    7.0031   18.8005   32.5721 H   0  0  0  0  0  0  0  0  0  0  0  0
    5.1294   21.6429   32.5000 C   0  0  0  0  0  0  0  0  0  0  0  0
    4.8625   22.4507   31.8347 H   0  0  0  0  0  0  0  0  0  0  0  0
    5.8009   19.5683   34.2051 C   0  0  0  0  0  0  0  0  0  0  0  0
    6.0336   18.7389   34.8565 H   0  0  0  0  0  0  0  0  0  0  0  0
    4.6193   21.6240   33.7929 C   0  0  0  0  0  0  0  0  0  0  0  0
    3.9448   22.4038   34.1144 H   0  0  0  0  0  0  0  0  0  0  0  0
    4.9742   20.5996   34.6836 C   0  0  0  0  0  0  0  0  0  0  0  0
    4.4402   20.5559   36.0009 R   0  0  0  0  0  1  0  0  0  0  0  0
  1  2  1  0
  1  3  2  0
  1  5  1  0
  3  4  1  0
  3  7  1  0
  5  6  1  0
  5  9  2  0
  7  8  1  0
  7 11  2  0
  9 10  1  0
  9 11  1  0
 11 12  1  0
M  ISO  1  12  52
M  END
>  <kinase>  (1) 
p38a

>  <family>  (1) 
MAPK

>  <group>  (1) 
CMGC

>  <complex_pdb>  (1) 
3uvq

>  <ligand_pdb>  (1) 
FS8

>  <alt>  (1) 
A

>  <chain>  (1) 
A

>  <atom.prop.subpocket>  (1) 
B2 B2 B2 B2 B2 B2 B2 B2 B2 B2 B2 GA

>  <atom.prop.environment>  (1) 
16 16 16 16 16 16 16 16 16 16 16 na

$$$$
4aa4_chainA
     RDKit          3D

  9  9  0  0  0  0  0  0  0  0999 V2000
    4.3275   21.5754   34.4423 C   0  0  0  0  0  0  0  0  0  0  0  0
    3.5012   22.3265   33.4745 C   0  0  0  0  0  0  0  0  0  0  0  0
    2.5398   22.7979   33.6160 H   0  0  0  0  0  0  0  0  0  0  0  0
    4.2712   22.2656   32.3638 C   0  0  0  0  0  0  0  0  0  0  0  0
    4.0140   22.7183   31.4176 H   0  0  0  0  0  0  0  0  0  0  0  0
    5.4210   21.5543   32.5956 O   0  0  0  0  0  0  0  0  0  0  0  0
    5.4751   21.1427   33.8348 C   0  0  0  0  0  0  0  0  0  0  0  0
    6.2706   20.5721   34.2909 H   0  0  0  0  0  0  0  0  0  0  0  0
    4.0237   21.3642   35.8462 R   0  0  0  0  0  1  0  0  0  0  0  0
  1  2  1  0
  1  7  2  0
  2  3  1  0
  2  4  2  0
  4  5  1  0
  4  6  1  0
  6  7  1  0
  7  8  1  0
  1  9  1  0
M  ISO  1   9  35
M  END
>  <kinase>  (1) 
p38a

>  <family>  (1) 
MAPK

>  <group>  (1) 
CMGC

>  <complex_pdb>  (1) 
4aa4

>  <ligand_pdb>  (1) 
QC0

>  <alt>  (1) 
 

>  <chain>  (1) 
A

>  <atom.prop.subpocket>  (1) 
B2 B2 B2 B2 B2 B2 B2 B2 GA

>  <atom.prop.environment>  (1) 
16 16 16 16 16 16 16 16 na

$$$$
4aa5_chainA
     RDKit          3D

 11 11  0  0  0  0  0  0  0  0999 V2000
    4.5561   21.6791   33.6785 C   0  0  0  0  0  0  0  0  0  0  0  0
    4.7294   20.6144   33.5225 H   0  0  0  0  0  0  0  0  0  0  0  0
    4.9563   22.9496   32.9673 C   0  0  0  0  0  0  0  0  0  0  0  0
    5.3460   22.9087   31.9501 H   0  0  0  0  0  0  0  0  0  0  0  0
    5.4526   23.7509   33.5146 H   0  0  0  0  0  0  0  0  0  0  0  0
    3.5075   22.6317   33.2371 C   0  0  0  0  0  0  0  0  0  0  0  0
    2.9530   23.2099   33.9761 H   0  0  0  0  0  0  0  0  0  0  0  0
    2.8464   22.3677   32.4117 H   0  0  0  0  0  0  0  0  0  0  0  0
    4.8680   21.5289   35.0723 N   0  0  0  0  0  0  0  0  0  0  0  0
    5.8371   21.6486   35.3302 H   0  0  0  0  0  0  0  0  0  0  0  0
    3.9946   21.2400   36.0957 R   0  0  0  0  0  1  0  0  0  0  0  0
  1  2  1  0
  1  3  1  0
  1  6  1  0
  1  9  1  0
  3  4  1  0
  3  5  1  0
  3  6  1  0
  6  7  1  0
  6  8  1  0
  9 10  1  0
  9 11  1  0
M  ISO  1  11  22
M  END
>  <kinase>  (1) 
p38a

>  <family>  (1) 
MAPK

>  <group>  (1) 
CMGC

>  <complex_pdb>  (1) 
4aa5

>  <ligand_pdb>  (1) 
NQB

>  <alt>  (1) 
 

>  <chain>  (1) 
A

>  <atom.prop.subpocket>  (1) 
B2 B2 B2 B2 B2 B2 B2 B2 B2 B2 GA

>  <atom.prop.environment>  (1) 
15 15 15 15 15 15 15 15 5 5 na

$$$$
4aac_chainA
     RDKit          3D

 10 10  0  0  0  0  0  0  0  0999 V2000
    5.0407   21.4827   35.6447 N   0  0  0  0  0  0  0  0  0  0  0  0
    5.9445   21.5478   36.0907 H   0  0  0  0  0  0  0  0  0  0  0  0
    5.8941   21.5153   33.2642 C   0  0  0  0  0  0  0  0  0  0  0  0
    6.8834   21.0980   33.3810 H   0  0  0  0  0  0  0  0  0  0  0  0
    5.2982   21.9519   32.1240 C   0  0  0  0  0  0  0  0  0  0  0  0
    5.7279   21.9391   31.1333 H   0  0  0  0  0  0  0  0  0  0  0  0
    4.0731   22.4038   32.4554 O   0  0  0  0  0  0  0  0  0  0  0  0
    4.9142   21.7354   34.2651 C   0  0  0  0  0  0  0  0  0  0  0  0
    3.8687   22.2758   33.6519 N   0  0  0  0  0  0  0  0  0  0  0  0
    3.9645   21.1576   36.3598 R   0  0  0  0  0  1  0  0  0  0  0  0
  1  2  1  0
  1  8  1  0
  3  4  1  0
  3  5  2  0
  3  8  1  0
  5  6  1  0
  5  7  1  0
  7  9  1  0
  8  9  2  0
  1 10  1  0
M  ISO  1  10  35
M  END
>  <kinase>  (1) 
p38a

>  <family>  (1) 
MAPK

>  <group>  (1) 
CMGC

>  <complex_pdb>  (1) 
4aac

>  <ligand_pdb>  (1) 
AAV

>  <alt>  (1) 
 

>  <chain>  (1) 
A

>  <atom.prop.subpocket>  (1) 
B2 B2 B2 B2 B2 B2 B2 B2 B2 GA

>  <atom.prop.environment>  (1) 
5 5 14 14 14 14 14 14 14 na

$$$$
4kin_chainB
     RDKit          3D

 11 11  0  0  0  0  0  0  0  0999 V2000
    5.0832   21.7446   34.9400 N   0  0  0  0  0  0  0  0  0  0  0  0
    6.0484   21.8075   35.2309 H   0  0  0  0  0  0  0  0  0  0  0  0
    4.7741   21.8073   33.5110 C   0  0  0  0  0  0  0  0  0  0  0  0
    4.6967   20.7225   33.4385 H   0  0  0  0  0  0  0  0  0  0  0  0
    3.9722   22.9409   33.0184 C   0  0  0  0  0  0  0  0  0  0  0  0
    3.6050   23.6931   33.7165 H   0  0  0  0  0  0  0  0  0  0  0  0
    3.2350   22.7856   32.2307 H   0  0  0  0  0  0  0  0  0  0  0  0
    5.4173   22.8633   32.7059 C   0  0  0  0  0  0  0  0  0  0  0  0
    5.7448   22.6503   31.6883 H   0  0  0  0  0  0  0  0  0  0  0  0
    6.1148   23.5578   33.1741 H   0  0  0  0  0  0  0  0  0  0  0  0
    4.1348   21.6070   35.8787 R   0  0  0  0  0  1  0  0  0  0  0  0
  1  2  1  0
  1  3  1  0
  3  4  1  0
  3  5  1  0
  3  8  1  0
  5  6  1  0
  5  7  1  0
  5  8  1  0
  8  9  1  0
  8 10  1  0
  1 11  1  0
M  ISO  1  11  15
M  END
>  <kinase>  (1) 
p38a

>  <family>  (1) 
MAPK

>  <group>  (1) 
CMGC

>  <complex_pdb>  (1) 
4kin

>  <ligand_pdb>  (1) 
1M8

>  <alt>  (1) 
 

>  <chain>  (1) 
B

>  <atom.prop.subpocket>  (1) 
B2 B2 B2 B2 B2 B2 B2 B2 B2 B2 GA

>  <atom.prop.environment>  (1) 
5 5 15 15 15 15 15 15 15 15 na

$$$$
4kip_chainA
     RDKit          3D

 11 11  0  0  0  0  0  0  0  0999 V2000
    4.9060   21.6686   35.1697 N   0  0  0  0  0  0  0  0  0  0  0  0
    5.8447   21.8829   35.4746 H   0  0  0  0  0  0  0  0  0  0  0  0
    4.6439   21.5900   33.7323 C   0  0  0  0  0  0  0  0  0  0  0  0
    4.5207   20.5078   33.7755 H   0  0  0  0  0  0  0  0  0  0  0  0
    5.3550   22.5246   32.8460 C   0  0  0  0  0  0  0  0  0  0  0  0
    5.7088   22.1892   31.8711 H   0  0  0  0  0  0  0  0  0  0  0  0
    6.0639   23.2396   33.2635 H   0  0  0  0  0  0  0  0  0  0  0  0
    3.9105   22.6907   33.0891 C   0  0  0  0  0  0  0  0  0  0  0  0
    3.5510   23.5287   33.6863 H   0  0  0  0  0  0  0  0  0  0  0  0
    3.1959   22.4783   32.2939 H   0  0  0  0  0  0  0  0  0  0  0  0
    3.9606   21.4702   36.1057 R   0  0  0  0  0  1  0  0  0  0  0  0
  1  2  1  0
  1  3  1  0
  3  4  1  0
  3  5  1  0
  3  8  1  0
  5  6  1  0
  5  7  1  0
  5  8  1  0
  8  9  1  0
  8 10  1  0
  1 11  1  0
M  ISO  1  11  13
M  END
>  <kinase>  (1) 
p38a

>  <family>  (1) 
MAPK

>  <group>  (1) 
CMGC

>  <complex_pdb>  (1) 
4kip

>  <ligand_pdb>  (1) 
1R9

>  <alt>  (1) 
 

>  <chain>  (1) 
A

>  <atom.prop.subpocket>  (1) 
B2 B2 B2 B2 B2 B2 B2 B2 B2 B2 GA

>  <atom.prop.environment>  (1) 
5 5 15 15 15 15 15 15 15 15 na

$$$$
4kiq_chainB
     RDKit          3D

 11 11  0  0  0  0  0  0  0  0999 V2000
    5.0380   21.6043   34.8985 N   0  0  0  0  0  0  0  0  0  0  0  0
    6.0112   21.6694   35.1606 H   0  0  0  0  0  0  0  0  0  0  0  0
    4.6850   21.6959   33.4804 C   0  0  0  0  0  0  0  0  0  0  0  0
    4.5160   20.6211   33.4147 H   0  0  0  0  0  0  0  0  0  0  0  0
    5.3763   22.6917   32.6490 C   0  0  0  0  0  0  0  0  0  0  0  0
    5.6414   22.4521   31.6192 H   0  0  0  0  0  0  0  0  0  0  0  0
    6.1497   23.3236   33.0857 H   0  0  0  0  0  0  0  0  0  0  0  0
    3.9696   22.8941   33.0164 C   0  0  0  0  0  0  0  0  0  0  0  0
    3.6987   23.6759   33.7259 H   0  0  0  0  0  0  0  0  0  0  0  0
    3.1904   22.8045   32.2595 H   0  0  0  0  0  0  0  0  0  0  0  0
    4.1173   21.4367   35.8682 R   0  0  0  0  0  1  0  0  0  0  0  0
  1  2  1  0
  1  3  1  0
  3  4  1  0
  3  5  1  0
  3  8  1  0
  5  6  1  0
  5  7  1  0
  5  8  1  0
  8  9  1  0
  8 10  1  0
  1 11  1  0
M  ISO  1  11  51
M  END
>  <kinase>  (1) 
p38a

>  <family>  (1) 
MAPK

>  <group>  (1) 
CMGC

>  <complex_pdb>  (1) 
4kiq

>  <ligand_pdb>  (1) 
1RA

>  <alt>  (1) 
 

>  <chain>  (1) 
B

>  <atom.prop.subpocket>  (1) 
B2 B2 B2 B2 B2 B2 B2 B2 B2 B2 GA

>  <atom.prop.environment>  (1) 
5 5 15 15 15 15 15 15 15 15 na

$$$$
5mtx_altB_chainA
     RDKit          3D

 12 12  0  0  0  0  0  0  0  0999 V2000
    4.9533   21.0987   34.6895 C   0  0  0  0  0  0  0  0  0  0  0  0
    5.9082   20.2296   34.2061 C   0  0  0  0  0  0  0  0  0  0  0  0
    6.2942   19.4678   34.8672 H   0  0  0  0  0  0  0  0  0  0  0  0
    6.3988   20.2901   32.8994 C   0  0  0  0  0  0  0  0  0  0  0  0
    7.1470   19.5875   32.5634 H   0  0  0  0  0  0  0  0  0  0  0  0
    5.9121   21.2661   32.0365 C   0  0  0  0  0  0  0  0  0  0  0  0
    6.2636   21.3214   31.0168 H   0  0  0  0  0  0  0  0  0  0  0  0
    4.9472   22.1872   32.5165 C   0  0  0  0  0  0  0  0  0  0  0  0
    4.5927   22.9728   31.8656 H   0  0  0  0  0  0  0  0  0  0  0  0
    4.4389   22.0936   33.8404 C   0  0  0  0  0  0  0  0  0  0  0  0
    3.6737   22.7726   34.1865 H   0  0  0  0  0  0  0  0  0  0  0  0
    4.4559   20.9889   35.9951 R   0  0  0  0  0  1  0  0  0  0  0  0
  1  2  2  0
  1 10  1  0
  2  3  1  0
  2  4  1  0
  4  5  1  0
  4  6  2  0
  6  7  1  0
  6  8  1  0
  8  9  1  0
  8 10  2  0
 10 11  1  0
  1 12  1  0
M  ISO  1  12  63
M  END
>  <kinase>  (1) 
p38a

>  <family>  (1) 
MAPK

>  <group>  (1) 
CMGC

>  <complex_pdb>  (1) 
5mtx

>  <ligand_pdb>  (1) 
FJI

>  <alt>  (1) 
B

>  <chain>  (1) 
A

>  <atom.prop.subpocket>  (1) 
B2 B2 B2 B2 B2 B2 B2 B2 B2 B2 B2 GA

>  <atom.prop.environment>  (1) 
16 16 16 16 16 16 16 16 16 16 16 na

$$$$
5mty_chainA
     RDKit          3D

  9  9  0  0  0  0  0  0  0  0999 V2000
    5.8096   21.3497   34.0757 C   0  0  0  0  0  0  0  0  0  0  0  0
    6.6130   20.7968   34.5398 H   0  0  0  0  0  0  0  0  0  0  0  0
    5.8977   21.8890   32.8407 C   0  0  0  0  0  0  0  0  0  0  0  0
    6.7837   21.8107   32.2281 H   0  0  0  0  0  0  0  0  0  0  0  0
    4.8044   22.5217   32.4458 C   0  0  0  0  0  0  0  0  0  0  0  0
    4.6429   23.0363   31.5101 H   0  0  0  0  0  0  0  0  0  0  0  0
    3.7877   22.3591   33.6437 S   0  0  0  0  0  0  0  0  0  0  0  0
    4.6470   21.5642   34.6597 C   0  0  0  0  0  0  0  0  0  0  0  0
    4.2751   21.1566   35.8780 R   0  0  0  0  0  1  0  0  0  0  0  0
  1  2  1  0
  1  3  1  0
  1  8  2  0
  3  4  1  0
  3  5  2  0
  5  6  1  0
  5  7  1  0
  7  8  1  0
  8  9  1  0
M  ISO  1   9   8
M  END
>  <kinase>  (1) 
p38a

>  <family>  (1) 
MAPK

>  <group>  (1) 
CMGC

>  <complex_pdb>  (1) 
5mty

>  <ligand_pdb>  (1) 
HB9

>  <alt>  (1) 
 

>  <chain>  (1) 
A

>  <atom.prop.subpocket>  (1) 
B2 B2 B2 B2 B2 B2 B2 B2 GA

>  <atom.prop.environment>  (1) 
14 14 14 14 14 14 14 14 na

$$$$
5tbe_chainA
     RDKit          3D

  9  9  0  0  0  0  0  0  0  0999 V2000
    3.8908   22.3242   34.5980 C   0  0  0  0  0  0  0  0  0  0  0  0
    2.8030   23.1410   33.5728 S   0  0  0  0  0  0  0  0  0  0  0  0
    3.9689   23.2489   32.2968 C   0  0  0  0  0  0  0  0  0  0  0  0
    3.8069   23.7151   31.3362 H   0  0  0  0  0  0  0  0  0  0  0  0
    5.1067   22.6590   32.6956 C   0  0  0  0  0  0  0  0  0  0  0  0
    5.9855   22.5970   32.0709 H   0  0  0  0  0  0  0  0  0  0  0  0
    5.0581   22.1559   33.9299 C   0  0  0  0  0  0  0  0  0  0  0  0
    5.9003   21.6440   34.3715 H   0  0  0  0  0  0  0  0  0  0  0  0
    3.5601   21.8945   35.8540 R   0  0  0  0  0  1  0  0  0  0  0  0
  1  2  1  0
  1  7  2  0
  2  3  1  0
  3  4  1  0
  3  5  2  0
  5  6  1  0
  5  7  1  0
  7  8  1  0
  1  9  1  0
M  ISO  1   9  65
M  END
>  <kinase>  (1) 
p38a

>  <family>  (1) 
MAPK

>  <group>  (1) 
CMGC

>  <complex_pdb>  (1) 
5tbe

>  <ligand_pdb>  (1) 
78L

>  <alt>  (1) 
 

>  <chain>  (1) 
A

>  <atom.prop.subpocket>  (1) 
B2 B2 B2 B2 B2 B2 B2 B2 GA

>  <atom.prop.environment>  (1) 
14 14 14 14 14 14 14 14 na

$$$$
5tco_chainA
     RDKit          3D

 12 12  0  0  0  0  0  0  0  0999 V2000
    4.7900   20.9426   34.7595 C   0  0  0  0  0  0  0  0  0  0  0  0
    5.8212   20.1221   34.2394 C   0  0  0  0  0  0  0  0  0  0  0  0
    6.2382   19.3477   34.8660 H   0  0  0  0  0  0  0  0  0  0  0  0
    6.3232   20.2836   32.9256 C   0  0  0  0  0  0  0  0  0  0  0  0
    7.0877   19.6236   32.5430 H   0  0  0  0  0  0  0  0  0  0  0  0
    5.8189   21.2957   32.1480 C   0  0  0  0  0  0  0  0  0  0  0  0
    6.1926   21.4385   31.1448 H   0  0  0  0  0  0  0  0  0  0  0  0
    4.8380   22.1316   32.6391 C   0  0  0  0  0  0  0  0  0  0  0  0
    4.4637   22.9301   32.0157 H   0  0  0  0  0  0  0  0  0  0  0  0
    4.3136   21.9664   33.9362 C   0  0  0  0  0  0  0  0  0  0  0  0
    3.5424   22.6320   34.2949 H   0  0  0  0  0  0  0  0  0  0  0  0
    4.2776   20.7610   36.0768 R   0  0  0  0  0  1  0  0  0  0  0  0
  1  2  2  0
  1 10  1  0
  2  3  1  0
  2  4  1  0
  4  5  1  0
  4  6  2  0
  6  7  1  0
  6  8  1  0
  8  9  1  0
  8 10  2  0
 10 11  1  0
  1 12  1  0
M  ISO  1  12  65
M  END
>  <kinase>  (1) 
p38a

>  <family>  (1) 
MAPK

>  <group>  (1) 
CMGC

>  <complex_pdb>  (1) 
5tco

>  <ligand_pdb>  (1) 
79Q

>  <alt>  (1) 
 

>  <chain>  (1) 
A

>  <atom.prop.subpocket>  (1) 
B2 B2 B2 B2 B2 B2 B2 B2 B2 B2 B2 GA

>  <atom.prop.environment>  (1) 
16 16 16 16 16 16 16 16 16 16 16 na

$$$$
4eym_chainA
     RDKit          3D

 24 25  0  0  0  0  0  0  0  0999 V2000
    4.6518   20.8831   34.9413 C   0  0  0  0  0  0  0  0  0  0  0  0
    5.6304   20.0248   34.4731 C   0  0  0  0  0  0  0  0  0  0  0  0
    5.9846   19.2110   35.0885 H   0  0  0  0  0  0  0  0  0  0  0  0
    6.1515   20.2235   33.2005 C   0  0  0  0  0  0  0  0  0  0  0  0
    7.1207   19.3394   32.7213 N   0  0  0  0  0  0  0  0  0  0  0  0
    7.3653   19.2521   31.2870 C   0  0  0  0  0  0  0  0  0  0  0  0
    7.1297   20.2026   30.8083 H   0  0  0  0  0  0  0  0  0  0  0  0
    6.7528   18.4635   30.8499 H   0  0  0  0  0  0  0  0  0  0  0  0
    8.8426   18.9277   31.1073 C   0  0  0  0  0  0  0  0  0  0  0  0
    9.4336   19.7680   31.4714 H   0  0  0  0  0  0  0  0  0  0  0  0
    9.0424   18.7755   30.0466 H   0  0  0  0  0  0  0  0  0  0  0  0
    9.2263   17.7501   31.8222 O   0  0  0  0  0  0  0  0  0  0  0  0
    8.2941   17.3075   32.8080 C   0  0  0  0  0  0  0  0  0  0  0  0
    8.7680   16.5631   33.4479 H   0  0  0  0  0  0  0  0  0  0  0  0
    7.4278   16.8652   32.3161 H   0  0  0  0  0  0  0  0  0  0  0  0
    7.8477   18.4929   33.6531 C   0  0  0  0  0  0  0  0  0  0  0  0
    7.1990   18.1661   34.4658 H   0  0  0  0  0  0  0  0  0  0  0  0
    8.7081   19.0205   34.0646 H   0  0  0  0  0  0  0  0  0  0  0  0
    5.7147   21.2374   32.4228 N   0  0  0  0  0  0  0  0  0  0  0  0
    4.7758   22.0806   32.8616 C   0  0  0  0  0  0  0  0  0  0  0  0
    4.4441   22.8904   32.2287 H   0  0  0  0  0  0  0  0  0  0  0  0
    4.2222   21.9221   34.1291 C   0  0  0  0  0  0  0  0  0  0  0  0
    3.4619   22.6050   34.4783 H   0  0  0  0  0  0  0  0  0  0  0  0
    4.0627   20.6948   36.3066 R   0  0  0  0  0  1  0  0  0  0  0  0
  1  2  2  0
  1 22  1  0
  2  3  1  0
  2  4  1  0
  4  5  1  0
  4 19  2  0
  5  6  1  0
  5 16  1  0
  6  7  1  0
  6  8  1  0
  6  9  1  0
  9 10  1  0
  9 11  1  0
  9 12  1  0
 12 13  1  0
 13 14  1  0
 13 15  1  0
 13 16  1  0
 16 17  1  0
 16 18  1  0
 19 20  1  0
 20 21  1  0
 20 22  2  0
 22 23  1  0
  1 24  1  0
M  ISO  1  24   1
M  END
>  <kinase>  (1) 
p38d

>  <family>  (1) 
MAPK

>  <group>  (1) 
CMGC

>  <complex_pdb>  (1) 
4eym

>  <ligand_pdb>  (1) 
0RX

>  <alt>  (1) 
 

>  <chain>  (1) 
A

>  <atom.prop.subpocket>  (1) 
B2 B2 B2 B2 B2 B2 B2 B2 B2 B2 B2 B2 B2 B2 B2 B2 B2 B2 B2 B2 B2 B2 B2 GA

>  <atom.prop.environment>  (1) 
16 16 16 16 5 5 5 5 5 5 5 5 5 5 5 5 5 5 16 16 16 16 16 na

$$$$
5eko_chainA
     RDKit          3D

 22 23  0  0  0  0  0  0  0  0999 V2000
    4.5255   20.7377   35.0610 C   0  0  0  0  0  0  0  0  0  0  0  0
    4.0991   21.8457   34.3470 C   0  0  0  0  0  0  0  0  0  0  0  0
    3.3102   22.4726   34.7356 H   0  0  0  0  0  0  0  0  0  0  0  0
    4.6924   22.1438   33.1303 C   0  0  0  0  0  0  0  0  0  0  0  0
    4.3672   23.0067   32.5681 H   0  0  0  0  0  0  0  0  0  0  0  0
    5.7040   21.3340   32.6344 C   0  0  0  0  0  0  0  0  0  0  0  0
    6.1489   21.5834   31.6824 H   0  0  0  0  0  0  0  0  0  0  0  0
    5.5479   19.9479   34.5468 C   0  0  0  0  0  0  0  0  0  0  0  0
    5.8787   19.0942   35.1198 H   0  0  0  0  0  0  0  0  0  0  0  0
    6.1684   20.2109   33.3174 C   0  0  0  0  0  0  0  0  0  0  0  0
    7.1459   19.4317   32.8449 N   0  0  0  0  0  0  0  0  0  0  0  0
    7.5537   18.3686   33.5286 C   0  0  0  0  0  0  0  0  0  0  0  0
    7.2112   17.9898   34.4802 H   0  0  0  0  0  0  0  0  0  0  0  0
    7.7731   19.6556   31.6841 C   0  0  0  0  0  0  0  0  0  0  0  0
    7.6022   20.4621   30.9864 H   0  0  0  0  0  0  0  0  0  0  0  0
    8.6734   18.6421   31.5782 N   0  0  0  0  0  0  0  0  0  0  0  0
    8.5357   17.8804   32.6893 C   0  0  0  0  0  0  0  0  0  0  0  0
    9.2105   16.6383   33.2009 C   0  0  0  0  0  0  0  0  0  0  0  0
    8.7776   16.3590   34.1614 H   0  0  0  0  0  0  0  0  0  0  0  0
   10.2766   16.8287   33.3245 H   0  0  0  0  0  0  0  0  0  0  0  0
    9.0668   15.8267   32.4876 H   0  0  0  0  0  0  0  0  0  0  0  0
    3.8824   20.4177   36.3825 R   0  0  0  0  0  1  0  0  0  0  0  0
  1  2  2  0
  1  8  1  0
  2  3  1  0
  2  4  1  0
  4  5  1  0
  4  6  2  0
  6  7  1  0
  6 10  1  0
  8  9  1  0
  8 10  2  0
 10 11  1  0
 11 12  1  0
 11 14  1  0
 12 13  1  0
 12 17  2  0
 14 15  1  0
 14 16  2  0
 16 17  1  0
 17 18  1  0
 18 19  1  0
 18 20  1  0
 18 21  1  0
  1 22  1  0
M  ISO  1  22   1
M  END
>  <kinase>  (1) 
p38d

>  <family>  (1) 
MAPK

>  <group>  (1) 
CMGC

>  <complex_pdb>  (1) 
5eko

>  <ligand_pdb>  (1) 
N17

>  <alt>  (1) 
 

>  <chain>  (1) 
A

>  <atom.prop.subpocket>  (1) 
B2 B2 B2 B2 B2 B2 B2 B2 B2 B2 B2 B2 B2 B2 B2 B2 B2 B2 B2 B2 B2 GA

>  <atom.prop.environment>  (1) 
16 16 16 16 16 16 16 16 16 16 9 9 9 9 9 9 9 8 8 8 8 na

$$$$
