4xv2_chainA
     RDKit          3D

 15 15  0  0  0  0  0  0  0  0999 V2000
    3.6348   22.0586   34.9594 S   0  0  0  0  0  6  0  0  0  0  0  0
    3.0286   23.6924   35.2941 C   0  0  0  0  0  0  0  0  0  0  0  0
    3.2801   25.9671   36.0778 C   0  0  0  0  0  0  0  0  0  0  0  0
    3.8960   26.7435   36.5071 H   0  0  0  0  0  0  0  0  0  0  0  0
    3.8161   24.6996   35.8520 C   0  0  0  0  0  0  0  0  0  0  0  0
    1.9487   26.2355   35.7502 C   0  0  0  0  0  0  0  0  0  0  0  0
    1.5343   27.2168   35.9284 H   0  0  0  0  0  0  0  0  0  0  0  0
    1.7023   23.9701   34.9687 C   0  0  0  0  0  0  0  0  0  0  0  0
    1.1561   25.2320   35.1922 C   0  0  0  0  0  0  0  0  0  0  0  0
    0.1263   25.4321   34.9354 H   0  0  0  0  0  0  0  0  0  0  0  0
    0.9288   23.0161   34.4339 F   0  0  0  0  0  0  0  0  0  0  0  0
    5.0947   24.4917   36.1817 F   0  0  0  0  0  0  0  0  0  0  0  0
    5.0433   21.9652   35.2877 O   0  0  0  0  0  0  0  0  0  0  0  0
    3.2305   21.7871   33.5929 O   0  0  0  0  0  0  0  0  0  0  0  0
    2.6966   21.0936   36.0200 *   0  0  0  0  0  0  0  0  0  0  0  0
  1  2  1  0
  1 13  2  0
  1 14  2  0
  2  5  2  0
  2  8  1  0
  3  4  1  0
  3  5  1  0
  3  6  2  0
  5 12  1  0
  6  7  1  0
  6  9  1  0
  8  9  2  0
  8 11  1  0
  9 10  1  0
 15  1  1  0
V   15 *
M  END
>  <kinase>  (1) 
BRAF

>  <family>  (1) 
RAF

>  <group>  (1) 
TKL

>  <complex_pdb>  (1) 
4xv2

>  <ligand_pdb>  (1) 
P06

>  <alt>  (1) 
 

>  <chain>  (1) 
A

>  <atom.prop.subpocket>  (1) 
B1 B1 B1 B1 B1 B1 B1 B1 B1 B1 B1 B1 B1 B1 GA

>  <atom.prop.environment>  (1) 
12 12 12 12 12 12 12 12 12 12 12 12 12 12 na

$$$$
3poz_chainA
     RDKit          3D

 15 15  0  0  0  0  0  0  0  0999 V2000
    4.6249   20.7128   34.8858 C   0  0  0  0  0  0  0  0  0  0  0  0
    5.3169   19.9116   34.6724 H   0  0  0  0  0  0  0  0  0  0  0  0
    2.8456   22.7996   35.4426 C   0  0  0  0  0  0  0  0  0  0  0  0
    3.3449   22.0104   36.4822 C   0  0  0  0  0  0  0  0  0  0  0  0
    3.0546   22.2149   37.5021 H   0  0  0  0  0  0  0  0  0  0  0  0
    1.8860   23.9309   35.6852 C   0  0  0  0  0  0  0  0  0  0  0  0
    1.7522   24.2411   36.9527 F   0  0  0  0  0  0  0  0  0  0  0  0
    2.3191   25.0175   35.0711 F   0  0  0  0  0  0  0  0  0  0  0  0
    0.6902   23.6106   35.2070 F   0  0  0  0  0  0  0  0  0  0  0  0
    3.2579   22.5447   34.1255 C   0  0  0  0  0  0  0  0  0  0  0  0
    2.8898   23.1627   33.3200 H   0  0  0  0  0  0  0  0  0  0  0  0
    4.1383   21.5008   33.8486 C   0  0  0  0  0  0  0  0  0  0  0  0
    4.4420   21.3042   32.8310 H   0  0  0  0  0  0  0  0  0  0  0  0
    4.2239   20.9518   36.2016 C   0  0  0  0  0  0  0  0  0  0  0  0
    4.7210   20.1664   37.2071 *   0  0  0  0  0  0  0  0  0  0  0  0
  1  2  1  0
  1 12  2  0
  1 14  1  0
  3  4  1  0
  3  6  1  0
  3 10  2  0
  4  5  1  0
  4 14  2  0
  6  7  1  0
  6  8  1  0
  6  9  1  0
 10 11  1  0
 10 12  1  0
 12 13  1  0
 14 15  1  0
V   15 *
M  END
>  <kinase>  (2) 
EGFR

>  <family>  (2) 
EGFR

>  <group>  (2) 
TK

>  <complex_pdb>  (2) 
3poz

>  <ligand_pdb>  (2) 
03P

>  <alt>  (2) 
 

>  <chain>  (2) 
A

>  <atom.prop.subpocket>  (2) 
B1 B1 B1 B1 B1 B1 B1 B1 B1 B1 B1 B1 B1 B1 GA

>  <atom.prop.environment>  (2) 
16 16 16 16 16 8 8 8 8 16 16 16 16 16 na

$$$$
1xkk_chainA
     RDKit          3D

 12 12  0  0  0  0  0  0  0  0999 V2000
    3.6158   22.0022   35.4986 C   0  0  0  0  0  0  0  0  0  0  0  0
    3.1303   22.1577   34.2187 C   0  0  0  0  0  0  0  0  0  0  0  0
    3.4650   21.4996   33.4306 H   0  0  0  0  0  0  0  0  0  0  0  0
    2.2161   23.1545   33.9438 C   0  0  0  0  0  0  0  0  0  0  0  0
    1.8381   23.2772   32.9396 H   0  0  0  0  0  0  0  0  0  0  0  0
    1.7848   23.9940   34.9488 C   0  0  0  0  0  0  0  0  0  0  0  0
    1.0682   24.7721   34.7307 H   0  0  0  0  0  0  0  0  0  0  0  0
    2.2649   23.8425   36.2280 C   0  0  0  0  0  0  0  0  0  0  0  0
    1.8472   24.6418   37.1828 F   0  0  0  0  0  0  0  0  0  0  0  0
    3.1802   22.8525   36.5117 C   0  0  0  0  0  0  0  0  0  0  0  0
    3.5586   22.7364   37.5165 H   0  0  0  0  0  0  0  0  0  0  0  0
    4.6314   20.8806   35.7923 *   0  0  0  0  0  0  0  0  0  0  0  0
  1  2  2  0
  1 10  1  0
  2  3  1  0
  2  4  1  0
  4  5  1  0
  4  6  2  0
  6  7  1  0
  6  8  1  0
  8  9  1  0
  8 10  2  0
 10 11  1  0
 12  1  1  0
V   12 *
M  END
>  <kinase>  (3) 
EGFR

>  <family>  (3) 
EGFR

>  <group>  (3) 
TK

>  <complex_pdb>  (3) 
1xkk

>  <ligand_pdb>  (3) 
FMM

>  <alt>  (3) 
 

>  <chain>  (3) 
A

>  <atom.prop.subpocket>  (3) 
B1 B1 B1 B1 B1 B1 B1 B1 B1 B1 B1 GA

>  <atom.prop.environment>  (3) 
16 16 16 16 16 16 16 16 16 16 16 na

$$$$
7b30_chainA
     RDKit          3D

 14 14  0  0  0  0  0  0  0  0999 V2000
    7.6633   20.7907   36.6392 N   0  0  0  0  0  0  0  0  0  0  0  0
    6.7857   21.7483   36.9960 C   0  0  0  0  0  0  0  0  0  0  0  0
    6.8148   23.0262   36.4505 C   0  0  0  0  0  0  0  0  0  0  0  0
    6.1064   23.7765   36.7694 H   0  0  0  0  0  0  0  0  0  0  0  0
    7.7664   23.3193   35.4927 C   0  0  0  0  0  0  0  0  0  0  0  0
    7.8072   24.3014   35.0452 H   0  0  0  0  0  0  0  0  0  0  0  0
    8.6638   22.3420   35.1152 C   0  0  0  0  0  0  0  0  0  0  0  0
    9.4107   22.5481   34.3629 H   0  0  0  0  0  0  0  0  0  0  0  0
    9.5926   20.0143   35.3997 C   0  0  0  0  0  0  0  0  0  0  0  0
    9.3561   19.1191   35.9749 H   0  0  0  0  0  0  0  0  0  0  0  0
   10.5931   20.3597   35.6601 H   0  0  0  0  0  0  0  0  0  0  0  0
    9.5536   19.7830   34.3353 H   0  0  0  0  0  0  0  0  0  0  0  0
    8.5962   21.0876   35.7143 C   0  0  0  0  0  0  0  0  0  0  0  0
    5.7564   21.3436   37.9849 *   0  0  0  0  0  0  0  0  0  0  0  0
  1  2  2  0
  1 13  1  0
  2  3  1  0
  3  4  1  0
  3  5  2  0
  5  6  1  0
  5  7  1  0
  7  8  1  0
  7 13  2  0
  9 10  1  0
  9 11  1  0
  9 12  1  0
  9 13  1  0
  2 14  1  0
V   14 *
M  END
>  <kinase>  (4) 
MST3

>  <family>  (4) 
STE20

>  <group>  (4) 
STE

>  <complex_pdb>  (4) 
7b30

>  <ligand_pdb>  (4) 
59T

>  <alt>  (4) 
 

>  <chain>  (4) 
A

>  <atom.prop.subpocket>  (4) 
B1 B1 B1 B1 B1 B1 B1 B1 B1 B1 B1 B1 B1 GA

>  <atom.prop.environment>  (4) 
14 14 14 14 14 14 14 14 8 8 8 8 14 na

$$$$
3c4c_chainA
     RDKit          3D

 14 13  0  0  0  0  0  0  0  0999 V2000
    5.0775   21.2766   34.9138 O   0  0  0  0  0  0  0  0  0  0  0  0
    3.6817   21.6734   34.9753 S   0  0  0  0  0  6  0  0  0  0  0  0
    3.1975   21.5060   33.6378 O   0  0  0  0  0  0  0  0  0  0  0  0
    3.4691   23.2719   35.4185 C   0  0  0  0  0  0  0  0  0  0  0  0
    4.3937   23.8094   35.2081 H   0  0  0  0  0  0  0  0  0  0  0  0
    3.2656   23.3042   36.4889 H   0  0  0  0  0  0  0  0  0  0  0  0
    2.3224   23.9876   34.6910 C   0  0  0  0  0  0  0  0  0  0  0  0
    1.4519   23.3323   34.6614 H   0  0  0  0  0  0  0  0  0  0  0  0
    2.6346   24.2230   33.6735 H   0  0  0  0  0  0  0  0  0  0  0  0
    1.9540   25.2800   35.4150 C   0  0  0  0  0  0  0  0  0  0  0  0
    1.6410   25.0494   36.4333 H   0  0  0  0  0  0  0  0  0  0  0  0
    1.1377   25.7725   34.8867 H   0  0  0  0  0  0  0  0  0  0  0  0
    2.8204   25.9410   35.4421 H   0  0  0  0  0  0  0  0  0  0  0  0
    2.8735   20.8629   36.1146 *   0  0  0  0  0  0  0  0  0  0  0  0
  1  2  2  0
  2  3  2  0
  2  4  1  0
  4  5  1  0
  4  6  1  0
  4  7  1  0
  7  8  1  0
  7  9  1  0
  7 10  1  0
 10 11  1  0
 10 12  1  0
 10 13  1  0
  2 14  1  0
V   14 *
M  END
>  <kinase>  (5) 
BRAF

>  <family>  (5) 
RAF

>  <group>  (5) 
TKL

>  <complex_pdb>  (5) 
3c4c

>  <ligand_pdb>  (5) 
324

>  <alt>  (5) 
 

>  <chain>  (5) 
A

>  <atom.prop.subpocket>  (5) 
B1 B1 B1 B1 B1 B1 B1 B1 B1 B1 B1 B1 B1 GA

>  <atom.prop.environment>  (5) 
12 12 12 12 12 12 12 12 12 12 12 12 12 na

$$$$
5dew_chainA
     RDKit          3D

 13 13  0  0  0  0  0  0  0  0999 V2000
    6.8633   22.2799   37.1369 C   0  0  0  0  0  0  0  0  0  0  0  0
    8.6035   23.2845   35.3546 C   0  0  0  0  0  0  0  0  0  0  0  0
    9.3156   23.6761   34.6432 H   0  0  0  0  0  0  0  0  0  0  0  0
    6.4707   23.2645   36.2347 C   0  0  0  0  0  0  0  0  0  0  0  0
    5.4548   23.6309   36.2342 H   0  0  0  0  0  0  0  0  0  0  0  0
    8.1130   21.8140   37.1161 N   0  0  0  0  0  0  0  0  0  0  0  0
    8.9848   22.2978   36.2479 C   0  0  0  0  0  0  0  0  0  0  0  0
    7.3585   23.7479   35.3756 N   0  0  0  0  0  0  0  0  0  0  0  0
   10.3902   21.7658   36.2368 C   0  0  0  0  0  0  0  0  0  0  0  0
   10.9652   22.2747   35.4632 H   0  0  0  0  0  0  0  0  0  0  0  0
   10.3720   20.6955   36.0311 H   0  0  0  0  0  0  0  0  0  0  0  0
   10.8528   21.9412   37.2080 H   0  0  0  0  0  0  0  0  0  0  0  0
    5.8940   21.7362   38.1203 *   0  0  0  0  0  0  0  0  0  0  0  0
  1  4  2  0
  1  6  1  0
  2  3  1  0
  2  7  1  0
  2  8  2  0
  4  5  1  0
  4  8  1  0
  6  7  2  0
  7  9  1  0
  9 10  1  0
  9 11  1  0
  9 12  1  0
  1 13  1  0
V   13 *
M  END
>  <kinase>  (6) 
PAK1

>  <family>  (6) 
STE20

>  <group>  (6) 
STE

>  <complex_pdb>  (6) 
5dew

>  <ligand_pdb>  (6) 
59N

>  <alt>  (6) 
 

>  <chain>  (6) 
A

>  <atom.prop.subpocket>  (6) 
B1 B1 B1 B1 B1 B1 B1 B1 B1 B1 B1 B1 GA

>  <atom.prop.environment>  (6) 
14 14 14 14 14 14 14 14 8 8 8 8 na

$$$$
3vs6_chainB
     RDKit          3D

 15 14  0  0  0  0  0  0  0  0999 V2000
    4.5079   21.4011   35.7533 O   0  0  0  0  0  0  0  0  0  0  0  0
    4.3742   22.6708   35.0987 C   0  0  0  0  0  0  0  0  0  0  0  0
    3.7181   23.6862   36.0283 C   0  0  0  0  0  0  0  0  0  0  0  0
    2.7138   23.3484   36.2843 H   0  0  0  0  0  0  0  0  0  0  0  0
    3.6598   24.6526   35.5276 H   0  0  0  0  0  0  0  0  0  0  0  0
    4.3116   23.7832   36.9374 H   0  0  0  0  0  0  0  0  0  0  0  0
    3.5679   22.4676   33.8175 C   0  0  0  0  0  0  0  0  0  0  0  0
    2.5696   22.1100   34.0694 H   0  0  0  0  0  0  0  0  0  0  0  0
    4.0682   21.7334   33.1859 H   0  0  0  0  0  0  0  0  0  0  0  0
    3.4906   23.4143   33.2828 H   0  0  0  0  0  0  0  0  0  0  0  0
    5.7730   23.1710   34.7605 C   0  0  0  0  0  0  0  0  0  0  0  0
    6.3404   23.3130   35.6803 H   0  0  0  0  0  0  0  0  0  0  0  0
    5.7009   24.1194   34.2280 H   0  0  0  0  0  0  0  0  0  0  0  0
    6.2785   22.4385   34.1311 H   0  0  0  0  0  0  0  0  0  0  0  0
    3.4845   20.8263   36.6246 *   0  0  0  0  0  0  0  0  0  0  0  0
  1  2  1  0
  2  3  1  0
  2  7  1  0
  2 11  1  0
  3  4  1  0
  3  5  1  0
  3  6  1  0
  7  8  1  0
  7  9  1  0
  7 10  1  0
 11 12  1  0
 11 13  1  0
 11 14  1  0
 15  1  1  0
V   15 *
M  END
>  <kinase>  (7) 
HCK

>  <family>  (7) 
Src

>  <group>  (7) 
TK

>  <complex_pdb>  (7) 
3vs6

>  <ligand_pdb>  (7) 
VSH

>  <alt>  (7) 
 

>  <chain>  (7) 
B

>  <atom.prop.subpocket>  (7) 
B1 B1 B1 B1 B1 B1 B1 B1 B1 B1 B1 B1 B1 B1 GA

>  <atom.prop.environment>  (7) 
3 4 4 4 4 4 4 4 4 4 4 4 4 4 na

$$$$
8bio_altB_chainA
     RDKit          3D

  5  4  0  0  0  0  0  0  0  0999 V2000
    3.1337   21.6736   35.8836 C   0  0  0  0  0  0  0  0  0  0  0  0
    1.9861   22.1347   35.8294 F   0  0  0  0  0  0  0  0  0  0  0  0
    3.2026   20.5400   35.2500 F   0  0  0  0  0  0  0  0  0  0  0  0
    3.8410   22.4855   35.1405 F   0  0  0  0  0  0  0  0  0  0  0  0
    3.6164   21.5816   37.2956 *   0  0  0  0  0  0  0  0  0  0  0  0
  1  2  1  0
  1  3  1  0
  1  4  1  0
  5  1  1  0
V    5 *
M  END
>  <kinase>  (8) 
EphA2

>  <family>  (8) 
Eph

>  <group>  (8) 
TK

>  <complex_pdb>  (8) 
8bio

>  <ligand_pdb>  (8) 
QRD

>  <alt>  (8) 
B

>  <chain>  (8) 
A

>  <atom.prop.subpocket>  (8) 
B1 B1 B1 B1 GA

>  <atom.prop.environment>  (8) 
8 8 8 8 na

$$$$
7b34_chainA
     RDKit          3D

 14 14  0  0  0  0  0  0  0  0999 V2000
    6.8561   21.8612   36.8550 C   0  0  0  0  0  0  0  0  0  0  0  0
    7.0055   23.2029   36.4934 C   0  0  0  0  0  0  0  0  0  0  0  0
    7.8995   23.5425   35.5048 C   0  0  0  0  0  0  0  0  0  0  0  0
    8.0134   24.5710   35.1954 H   0  0  0  0  0  0  0  0  0  0  0  0
    8.6497   22.5421   34.9146 C   0  0  0  0  0  0  0  0  0  0  0  0
    9.3576   22.7808   34.1347 H   0  0  0  0  0  0  0  0  0  0  0  0
    8.4851   21.2225   35.3342 C   0  0  0  0  0  0  0  0  0  0  0  0
    9.3341   20.1114   34.7911 C   0  0  0  0  0  0  0  0  0  0  0  0
   10.0111   20.5081   34.0345 H   0  0  0  0  0  0  0  0  0  0  0  0
    8.6943   19.3509   34.3435 H   0  0  0  0  0  0  0  0  0  0  0  0
    9.9137   19.6680   35.6008 H   0  0  0  0  0  0  0  0  0  0  0  0
    6.3201   24.1775   37.1285 F   0  0  0  0  0  0  0  0  0  0  0  0
    7.5936   20.8906   36.2825 N   0  0  0  0  0  0  0  0  0  0  0  0
    5.8694   21.4058   37.8568 *   0  0  0  0  0  0  0  0  0  0  0  0
  1  2  2  0
  1 13  1  0
  2  3  1  0
  2 12  1  0
  3  4  1  0
  3  5  2  0
  5  6  1  0
  5  7  1  0
  7  8  1  0
  7 13  2  0
  8  9  1  0
  8 10  1  0
  8 11  1  0
 14  1  1  0
V   14 *
M  END
>  <kinase>  (9) 
MST3

>  <family>  (9) 
STE20

>  <group>  (9) 
STE

>  <complex_pdb>  (9) 
7b34

>  <ligand_pdb>  (9) 
SQK

>  <alt>  (9) 
 

>  <chain>  (9) 
A

>  <atom.prop.subpocket>  (9) 
B1 B1 B1 B1 B1 B1 B1 B1 B1 B1 B1 B1 B1 GA

>  <atom.prop.environment>  (9) 
14 14 14 14 14 14 14 8 8 8 8 14 14 na

$$$$
3lzb_chainA
     RDKit          3D

 17 17  0  0  0  0  0  0  0  0999 V2000
    4.2068   22.1606   35.2380 C   0  0  0  0  0  0  0  0  0  0  0  0
    4.6761   21.9187   36.1802 H   0  0  0  0  0  0  0  0  0  0  0  0
    2.4612   23.2244   33.9985 C   0  0  0  0  0  0  0  0  0  0  0  0
    1.5555   23.8124   33.9797 H   0  0  0  0  0  0  0  0  0  0  0  0
    3.0564   22.9197   35.2023 C   0  0  0  0  0  0  0  0  0  0  0  0
    3.0145   22.9302   37.6967 C   0  0  0  0  0  0  0  0  0  0  0  0
    4.1682   22.0239   32.8359 C   0  0  0  0  0  0  0  0  0  0  0  0
    4.6103   21.6761   31.9140 H   0  0  0  0  0  0  0  0  0  0  0  0
    4.7486   21.7154   34.0497 C   0  0  0  0  0  0  0  0  0  0  0  0
    5.6449   21.1132   34.0697 H   0  0  0  0  0  0  0  0  0  0  0  0
    3.0180   22.7811   32.8156 C   0  0  0  0  0  0  0  0  0  0  0  0
    2.5512   23.0282   31.8736 H   0  0  0  0  0  0  0  0  0  0  0  0
    2.4158   23.4477   36.4328 C   0  0  0  0  0  0  0  0  0  0  0  0
    1.3610   23.1732   36.4152 H   0  0  0  0  0  0  0  0  0  0  0  0
    2.5086   24.5338   36.4288 H   0  0  0  0  0  0  0  0  0  0  0  0
    4.0202   23.4206   38.2038 O   0  0  0  0  0  0  0  0  0  0  0  0
    2.2551   21.8673   38.1405 *   0  0  0  0  0  0  0  0  0  0  0  0
  1  2  1  0
  1  5  2  0
  1  9  1  0
  3  4  1  0
  3  5  1  0
  3 11  2  0
  5 13  1  0
  6 13  1  0
  6 16  2  0
  7  8  1  0
  7  9  2  0
  7 11  1  0
  9 10  1  0
 11 12  1  0
 13 14  1  0
 13 15  1  0
  6 17  1  0
V   17 *
M  END
>  <kinase>  (10) 
EGFR

>  <family>  (10) 
EGFR

>  <group>  (10) 
TK

>  <complex_pdb>  (10) 
3lzb

>  <ligand_pdb>  (10) 
ITI

>  <alt>  (10) 
 

>  <chain>  (10) 
A

>  <atom.prop.subpocket>  (10) 
B1 B1 B1 B1 B1 B1 B1 B1 B1 B1 B1 B1 B1 B1 B1 B1 GA

>  <atom.prop.environment>  (10) 
16 16 16 16 16 1 16 16 16 16 16 16 8 1 1 1 na

$$$$
5hes_altB_chainB
     RDKit          3D

 12 11  0  0  0  0  0  0  0  0999 V2000
    4.3192   21.4930   34.9041 S   0  0  0  0  0  6  0  0  0  0  0  0
    3.6388   21.2722   33.6787 O   0  0  0  0  0  0  0  0  0  0  0  0
    5.6932   21.1617   35.0157 O   0  0  0  0  0  0  0  0  0  0  0  0
    4.1539   23.1441   35.4892 C   0  0  0  0  0  0  0  0  0  0  0  0
    4.9850   23.7237   35.8630 H   0  0  0  0  0  0  0  0  0  0  0  0
    2.8444   23.6368   35.4252 C   0  0  0  0  0  0  0  0  0  0  0  0
    1.9875   23.1573   34.9756 H   0  0  0  0  0  0  0  0  0  0  0  0
    2.8809   24.9612   36.1073 C   0  0  0  0  0  0  0  0  0  0  0  0
    1.8853   25.4046   36.0936 H   0  0  0  0  0  0  0  0  0  0  0  0
    3.5785   25.6183   35.5879 H   0  0  0  0  0  0  0  0  0  0  0  0
    3.2058   24.8295   37.1394 H   0  0  0  0  0  0  0  0  0  0  0  0
    3.5475   20.5858   36.0095 *   0  0  0  0  0  0  0  0  0  0  0  0
  1  2  2  0
  1  3  2  0
  1  4  1  0
  4  5  1  0
  4  6  2  0
  6  7  1  0
  6  8  1  0
  8  9  1  0
  8 10  1  0
  8 11  1  0
 12  1  1  0
V   12 *
M  END
>  <kinase>  (11) 
ZAK

>  <family>  (11) 
MLK

>  <group>  (11) 
TKL

>  <complex_pdb>  (11) 
5hes

>  <ligand_pdb>  (11) 
032

>  <alt>  (11) 
B

>  <chain>  (11) 
B

>  <atom.prop.subpocket>  (11) 
B1 B1 B1 B1 B1 B1 B1 B1 B1 B1 B1 GA

>  <atom.prop.environment>  (11) 
12 12 12 12 12 12 12 12 12 12 12 na

$$$$
3wzj_chainA
     RDKit          3D

  9  9  0  0  0  0  0  0  0  0999 V2000
    4.6124   21.3751   36.1838 C   0  0  0  0  0  0  0  0  0  0  0  0
    4.6055   20.3343   35.8603 H   0  0  0  0  0  0  0  0  0  0  0  0
    5.6581   22.4306   36.4435 C   0  0  0  0  0  0  0  0  0  0  0  0
    6.6777   22.2870   36.0858 H   0  0  0  0  0  0  0  0  0  0  0  0
    5.6789   22.9532   37.3998 H   0  0  0  0  0  0  0  0  0  0  0  0
    4.5385   22.7013   35.4552 C   0  0  0  0  0  0  0  0  0  0  0  0
    3.7538   23.4166   35.7016 H   0  0  0  0  0  0  0  0  0  0  0  0
    4.7526   22.7503   34.3876 H   0  0  0  0  0  0  0  0  0  0  0  0
    3.6871   21.2210   37.2998 *   0  0  0  0  0  0  0  0  0  0  0  0
  1  2  1  0
  1  3  1  0
  1  6  1  0
  3  4  1  0
  3  5  1  0
  3  6  1  0
  6  7  1  0
  6  8  1  0
  9  1  1  0
V    9 *
M  END
>  <kinase>  (12) 
TTK

>  <family>  (12) 
TTK

>  <group>  (12) 
Other

>  <complex_pdb>  (12) 
3wzj

>  <ligand_pdb>  (12) 
O43

>  <alt>  (12) 
 

>  <chain>  (12) 
A

>  <atom.prop.subpocket>  (12) 
B1 B1 B1 B1 B1 B1 B1 B1 GA

>  <atom.prop.environment>  (12) 
15 15 15 15 15 15 15 15 na

$$$$
4eqc_altB_chainA
     RDKit          3D

  8  8  0  0  0  0  0  0  0  0999 V2000
    6.4413   22.3356   36.8845 C   0  0  0  0  0  0  0  0  0  0  0  0
    7.7617   21.9080   36.7324 C   0  0  0  0  0  0  0  0  0  0  0  0
    8.1768   21.0996   37.3160 H   0  0  0  0  0  0  0  0  0  0  0  0
    8.4887   22.5776   35.8007 N   0  0  0  0  0  0  0  0  0  0  0  0
    6.1785   23.6578   35.7881 S   0  0  0  0  0  0  0  0  0  0  0  0
    7.7923   23.5344   35.2235 C   0  0  0  0  0  0  0  0  0  0  0  0
    8.2010   24.1830   34.4628 H   0  0  0  0  0  0  0  0  0  0  0  0
    5.4972   21.7091   37.8852 *   0  0  0  0  0  0  0  0  0  0  0  0
  1  2  2  0
  1  5  1  0
  2  3  1  0
  2  4  1  0
  4  6  2  0
  5  6  1  0
  6  7  1  0
  8  1  1  0
V    8 *
M  END
>  <kinase>  (13) 
PAK1

>  <family>  (13) 
STE20

>  <group>  (13) 
STE

>  <complex_pdb>  (13) 
4eqc

>  <ligand_pdb>  (13) 
XR1

>  <alt>  (13) 
B

>  <chain>  (13) 
A

>  <atom.prop.subpocket>  (13) 
B1 B1 B1 B1 B1 B1 B1 GA

>  <atom.prop.environment>  (13) 
14 14 14 14 14 14 14 na

$$$$
3u6i_chainA
     RDKit          3D

 23 24  0  0  0  0  0  0  0  0999 V2000
    5.6539   21.9410   35.4424 C   0  0  0  0  0  0  0  0  0  0  0  0
    4.2997   21.7269   35.2400 C   0  0  0  0  0  0  0  0  0  0  0  0
    5.1756   22.9492   33.6252 N   0  0  0  0  0  0  0  0  0  0  0  0
    4.0206   22.4188   34.0669 C   0  0  0  0  0  0  0  0  0  0  0  0
    6.1018   22.6733   34.4171 N   0  0  0  0  0  0  0  0  0  0  0  0
    6.3199   21.4981   36.3803 O   0  0  0  0  0  0  0  0  0  0  0  0
    7.3602   23.1076   34.3093 C   0  0  0  0  0  0  0  0  0  0  0  0
    7.6106   24.4104   34.7608 C   0  0  0  0  0  0  0  0  0  0  0  0
    6.8003   24.9971   35.1679 H   0  0  0  0  0  0  0  0  0  0  0  0
    8.4040   22.3411   33.7900 C   0  0  0  0  0  0  0  0  0  0  0  0
    8.2239   21.3337   33.4450 H   0  0  0  0  0  0  0  0  0  0  0  0
    9.6851   22.8939   33.7224 C   0  0  0  0  0  0  0  0  0  0  0  0
   10.4973   22.3078   33.3184 H   0  0  0  0  0  0  0  0  0  0  0  0
    8.8898   24.9605   34.6926 C   0  0  0  0  0  0  0  0  0  0  0  0
    9.0728   25.9667   35.0398 H   0  0  0  0  0  0  0  0  0  0  0  0
    9.9297   24.1923   34.1693 C   0  0  0  0  0  0  0  0  0  0  0  0
   10.9265   24.6037   34.1101 H   0  0  0  0  0  0  0  0  0  0  0  0
    2.6506   22.5274   33.3734 C   0  0  0  0  0  0  0  0  0  0  0  0
    2.7460   23.1352   32.4737 H   0  0  0  0  0  0  0  0  0  0  0  0
    1.9357   22.9926   34.0521 H   0  0  0  0  0  0  0  0  0  0  0  0
    2.3000   21.5312   33.1035 H   0  0  0  0  0  0  0  0  0  0  0  0
    3.3458   20.9501   36.1744 *   0  0  0  0  0  0  0  0  0  0  0  0
    5.3183   23.8026   32.4067 *   0  0  0  0  0  0  0  0  0  0  0  0
  1  2  1  0
  1  5  1  0
  1  6  2  0
  2  4  2  0
  3  4  1  0
  3  5  1  0
  4 18  1  0
  5  7  1  0
  7  8  2  0
  7 10  1  0
  8  9  1  0
  8 14  1  0
 10 11  1  0
 10 12  2  0
 12 13  1  0
 12 16  1  0
 14 15  1  0
 14 16  2  0
 16 17  1  0
 18 19  1  0
 18 20  1  0
 18 21  1  0
  2 22  1  0
  3 23  1  0
V   22 *
V   23 *
M  END
>  <kinase>  (14) 
MET

>  <family>  (14) 
Met

>  <group>  (14) 
TK

>  <complex_pdb>  (14) 
3u6i

>  <ligand_pdb>  (14) 
044

>  <alt>  (14) 
 

>  <chain>  (14) 
A

>  <atom.prop.subpocket>  (14) 
B1 B1 B1 B1 B1 B1 B1 B1 B1 B1 B1 B1 B1 B1 B1 B1 B1 B1 B1 B1 B1 GA B2

>  <atom.prop.environment>  (14) 
16 16 9 14 9 16 16 16 16 16 16 16 16 16 16 16 16 8 8 8 8 na na

$$$$
3u6h_altB_chainA
     RDKit          3D

 16 16  0  0  0  0  0  0  0  0999 V2000
    5.0736   22.8183   33.5306 N   0  0  0  0  0  0  0  0  0  0  0  0
    3.9451   22.2937   34.0198 C   0  0  0  0  0  0  0  0  0  0  0  0
    5.6377   21.8703   35.3549 C   0  0  0  0  0  0  0  0  0  0  0  0
    2.5570   22.3767   33.3747 C   0  0  0  0  0  0  0  0  0  0  0  0
    2.6199   22.9495   32.4495 H   0  0  0  0  0  0  0  0  0  0  0  0
    1.8666   22.8684   34.0602 H   0  0  0  0  0  0  0  0  0  0  0  0
    2.1973   21.3713   33.1559 H   0  0  0  0  0  0  0  0  0  0  0  0
    4.2729   21.6519   35.2022 C   0  0  0  0  0  0  0  0  0  0  0  0
    6.3405   21.4650   36.2852 O   0  0  0  0  0  0  0  0  0  0  0  0
    5.1508   23.5877   32.2322 C   0  0  0  0  0  0  0  0  0  0  0  0
    4.1553   23.6628   31.7947 H   0  0  0  0  0  0  0  0  0  0  0  0
    5.8134   23.0676   31.5405 H   0  0  0  0  0  0  0  0  0  0  0  0
    5.5394   24.5877   32.4250 H   0  0  0  0  0  0  0  0  0  0  0  0
    6.0427   22.5607   34.2736 N   0  0  0  0  0  0  0  0  0  0  0  0
    3.3162   20.9272   36.1579 *   0  0  0  0  0  0  0  0  0  0  0  0
    7.2743   23.0296   34.0607 *   0  0  0  0  0  0  0  0  0  0  0  0
  1  2  1  0
  1 10  1  0
  1 14  1  0
  2  4  1  0
  2  8  2  0
  3  8  1  0
  3  9  2  0
  3 14  1  0
  4  5  1  0
  4  6  1  0
  4  7  1  0
 10 11  1  0
 10 12  1  0
 10 13  1  0
 15  8  1  0
 16 14  1  0
V   15 *
V   16 *
M  END
>  <kinase>  (15) 
MET

>  <family>  (15) 
Met

>  <group>  (15) 
TK

>  <complex_pdb>  (15) 
3u6h

>  <ligand_pdb>  (15) 
03X

>  <alt>  (15) 
B

>  <chain>  (15) 
A

>  <atom.prop.subpocket>  (15) 
B1 B1 B1 B1 B1 B1 B1 B1 B1 B1 B1 B1 B1 B1 GA B2

>  <atom.prop.environment>  (15) 
9 14 16 8 8 8 8 16 16 8 8 8 8 9 na na

$$$$
6mep_chainA
     RDKit          3D

 11 11  0  0  0  0  0  0  0  0999 V2000
    3.2140   22.9670   34.1325 C   0  0  0  0  0  0  0  0  0  0  0  0
    3.9494   23.0918   33.3377 H   0  0  0  0  0  0  0  0  0  0  0  0
    3.7032   23.9973   34.7928 O   0  0  0  0  0  0  0  0  0  0  0  0
    3.0586   25.1041   34.3873 C   0  0  0  0  0  0  0  0  0  0  0  0
    3.7603   25.8039   33.9334 H   0  0  0  0  0  0  0  0  0  0  0  0
    2.5634   25.5828   35.2322 H   0  0  0  0  0  0  0  0  0  0  0  0
    2.1055   24.6848   33.4375 C   0  0  0  0  0  0  0  0  0  0  0  0
    2.2982   25.1579   32.4746 H   0  0  0  0  0  0  0  0  0  0  0  0
    1.1002   24.9399   33.7730 H   0  0  0  0  0  0  0  0  0  0  0  0
    2.2398   23.3385   33.3354 O   0  0  0  0  0  0  0  0  0  0  0  0
    3.6833   21.5463   34.3896 *   0  0  0  0  0  0  0  0  0  0  0  0
  1  2  1  0
  1  3  1  0
  1 10  1  0
  3  4  1  0
  4  5  1  0
  4  6  1  0
  4  7  1  0
  7  8  1  0
  7  9  1  0
  7 10  1  0
 11  1  1  0
V   11 *
M  END
>  <kinase>  (16) 
MER

>  <family>  (16) 
Axl

>  <group>  (16) 
TK

>  <complex_pdb>  (16) 
6mep

>  <ligand_pdb>  (16) 
9VS

>  <alt>  (16) 
 

>  <chain>  (16) 
A

>  <atom.prop.subpocket>  (16) 
B1 B1 B1 B1 B1 B1 B1 B1 B1 B1 GA

>  <atom.prop.environment>  (16) 
13 13 13 13 13 13 13 13 13 13 na

$$$$
5hhw_altB_chainA
     RDKit          3D

 19 19  0  0  0  0  0  0  0  0999 V2000
    5.0811   20.8461   36.1941 C   0  0  0  0  0  0  0  0  0  0  0  0
    4.1942   21.3316   35.7870 H   0  0  0  0  0  0  0  0  0  0  0  0
    5.2360   19.8916   35.6910 H   0  0  0  0  0  0  0  0  0  0  0  0
    6.3098   21.7508   35.9575 C   0  0  2  0  0  0  0  0  0  0  0  0
    6.3557   22.0049   34.8985 H   0  0  0  0  0  0  0  0  0  0  0  0
    8.7380   21.6671   36.0476 C   0  0  0  0  0  0  0  0  0  0  0  0
    8.8032   21.7928   34.9669 H   0  0  0  0  0  0  0  0  0  0  0  0
    9.5648   21.0458   36.3916 H   0  0  0  0  0  0  0  0  0  0  0  0
    7.4771   21.0183   36.3815 O   0  0  0  0  0  0  0  0  0  0  0  0
    8.8232   23.0669   36.7360 C   0  0  0  0  0  0  0  0  0  0  0  0
    9.6887   23.6044   36.3487 H   0  0  0  0  0  0  0  0  0  0  0  0
    8.9317   22.9308   37.8120 H   0  0  0  0  0  0  0  0  0  0  0  0
    7.5336   23.8990   36.4520 C   0  0  0  0  0  0  0  0  0  0  0  0
    7.5422   24.2077   35.4066 H   0  0  0  0  0  0  0  0  0  0  0  0
    7.5414   24.7817   37.0915 H   0  0  0  0  0  0  0  0  0  0  0  0
    6.2249   23.1005   36.7234 C   0  0  0  0  0  0  0  0  0  0  0  0
    6.1230   22.9121   37.7922 H   0  0  0  0  0  0  0  0  0  0  0  0
    5.3653   23.6708   36.3714 H   0  0  0  0  0  0  0  0  0  0  0  0
    4.8902   20.6138   37.6067 *   0  0  0  0  0  0  0  0  0  0  0  0
  1  2  1  0
  1  3  1  0
  1  4  1  0
  4  5  1  6
  4  9  1  0
  4 16  1  0
  6  7  1  0
  6  8  1  0
  6  9  1  0
  6 10  1  0
 10 11  1  0
 10 12  1  0
 10 13  1  0
 13 14  1  0
 13 15  1  0
 13 16  1  0
 16 17  1  0
 16 18  1  0
  1 19  1  0
V   19 *
M  END
>  <kinase>  (17) 
INSR

>  <family>  (17) 
InsR

>  <group>  (17) 
TK

>  <complex_pdb>  (17) 
5hhw

>  <ligand_pdb>  (17) 
60O

>  <alt>  (17) 
B

>  <chain>  (17) 
A

>  <atom.prop.subpocket>  (17) 
B1 B1 B1 B1 B1 B1 B1 B1 B1 B1 B1 B1 B1 B1 B1 B1 B1 B1 GA

>  <atom.prop.environment>  (17) 
4 4 4 13 13 13 13 13 13 13 13 13 13 13 13 13 13 13 na

$$$$
5w5q_altB_chainA
     RDKit          3D

 11 11  0  0  0  0  0  0  0  0999 V2000
    3.8872   22.0761   36.3545 C   0  0  0  0  0  0  0  0  0  0  0  0
    2.1383   23.2080   36.1047 C   0  0  0  0  0  0  0  0  0  0  0  0
    1.1032   23.4669   35.9378 H   0  0  0  0  0  0  0  0  0  0  0  0
    3.2502   25.5711   36.4236 C   0  0  0  0  0  0  0  0  0  0  0  0
    2.2710   26.0281   36.2807 H   0  0  0  0  0  0  0  0  0  0  0  0
    3.9392   25.9438   35.6657 H   0  0  0  0  0  0  0  0  0  0  0  0
    3.6282   25.8240   37.4142 H   0  0  0  0  0  0  0  0  0  0  0  0
    3.1305   24.0955   36.3013 C   0  0  0  0  0  0  0  0  0  0  0  0
    2.6290   21.9268   36.1467 N   0  0  0  0  0  0  0  0  0  0  0  0
    4.2972   23.3836   36.4601 O   0  0  0  0  0  0  0  0  0  0  0  0
    4.9200   20.9860   36.4974 *   0  0  0  0  0  0  0  0  0  0  0  0
  1  9  2  0
  1 10  1  0
  2  3  1  0
  2  8  2  0
  2  9  1  0
  4  5  1  0
  4  6  1  0
  4  7  1  0
  4  8  1  0
  8 10  1  0
  1 11  1  0
V   11 *
M  END
>  <kinase>  (18) 
HGK

>  <family>  (18) 
STE20

>  <group>  (18) 
STE

>  <complex_pdb>  (18) 
5w5q

>  <ligand_pdb>  (18) 
9X4

>  <alt>  (18) 
B

>  <chain>  (18) 
A

>  <atom.prop.subpocket>  (18) 
B1 B1 B1 B1 B1 B1 B1 B1 B1 B1 GA

>  <atom.prop.environment>  (18) 
14 14 14 8 8 8 8 14 14 14 na

$$$$
3w33_altA_chainA
     RDKit          3D

 15 16  0  0  0  0  0  0  0  0999 V2000
    3.9855   21.3654   33.7025 C   0  0  0  0  0  0  0  0  0  0  0  0
    4.2378   20.9030   32.7597 H   0  0  0  0  0  0  0  0  0  0  0  0
    4.4901   20.8364   34.8715 C   0  0  0  0  0  0  0  0  0  0  0  0
    5.1327   19.9696   34.8244 H   0  0  0  0  0  0  0  0  0  0  0  0
    3.1635   22.4752   33.7140 C   0  0  0  0  0  0  0  0  0  0  0  0
    2.7669   22.9034   32.8053 H   0  0  0  0  0  0  0  0  0  0  0  0
    2.9499   23.2275   37.3015 C   0  0  0  0  0  0  0  0  0  0  0  0
    3.2537   22.9630   38.3036 H   0  0  0  0  0  0  0  0  0  0  0  0
    2.1263   24.2916   37.0424 C   0  0  0  0  0  0  0  0  0  0  0  0
    1.6926   24.9571   37.7741 H   0  0  0  0  0  0  0  0  0  0  0  0
    3.3783   22.4934   36.1559 C   0  0  0  0  0  0  0  0  0  0  0  0
    4.1915   21.3916   36.1054 C   0  0  0  0  0  0  0  0  0  0  0  0
    2.8785   23.0057   34.9615 C   0  0  0  0  0  0  0  0  0  0  0  0
    1.9111   24.3721   35.3469 S   0  0  0  0  0  0  0  0  0  0  0  0
    4.7333   20.8406   37.2647 *   0  0  0  0  0  0  0  0  0  0  0  0
  1  2  1  0
  1  3  2  0
  1  5  1  0
  3  4  1  0
  3 12  1  0
  5  6  1  0
  5 13  2  0
  7  8  1  0
  7  9  2  0
  7 11  1  0
  9 10  1  0
  9 14  1  0
 11 12  2  0
 11 13  1  0
 13 14  1  0
 12 15  1  0
V   15 *
M  END
>  <kinase>  (19) 
EGFR

>  <family>  (19) 
EGFR

>  <group>  (19) 
TK

>  <complex_pdb>  (19) 
3w33

>  <ligand_pdb>  (19) 
W19

>  <alt>  (19) 
A

>  <chain>  (19) 
A

>  <atom.prop.subpocket>  (19) 
B1 B1 B1 B1 B1 B1 B1 B1 B1 B1 B1 B1 B1 B1 GA

>  <atom.prop.environment>  (19) 
16 16 16 16 16 16 16 16 16 16 16 16 16 16 na

$$$$
8ssn_chainA
     RDKit          3D

 12 12  0  0  0  0  0  0  0  0999 V2000
    4.3006   20.9192   36.5575 C   0  0  0  0  0  0  0  0  0  0  0  0
    4.7666   20.5490   35.2595 C   0  0  0  0  0  0  0  0  0  0  0  0
    5.5454   19.8076   35.1588 H   0  0  0  0  0  0  0  0  0  0  0  0
    4.2239   21.1366   34.1299 C   0  0  0  0  0  0  0  0  0  0  0  0
    4.5781   20.8518   33.1502 H   0  0  0  0  0  0  0  0  0  0  0  0
    3.2082   22.1076   34.2579 C   0  0  0  0  0  0  0  0  0  0  0  0
    2.7853   22.5657   33.3760 H   0  0  0  0  0  0  0  0  0  0  0  0
    2.7607   22.4673   35.4926 C   0  0  0  0  0  0  0  0  0  0  0  0
    1.9830   23.2103   35.5912 H   0  0  0  0  0  0  0  0  0  0  0  0
    3.3340   21.8470   36.6818 C   0  0  0  0  0  0  0  0  0  0  0  0
    2.9826   22.1325   37.6624 H   0  0  0  0  0  0  0  0  0  0  0  0
    4.8674   20.3129   37.6994 *   0  0  0  0  0  0  0  0  0  0  0  0
  1  2  2  0
  1 10  1  0
  2  3  1  0
  2  4  1  0
  4  5  1  0
  4  6  2  0
  6  7  1  0
  6  8  1  0
  8  9  1  0
  8 10  2  0
 10 11  1  0
  1 12  1  0
V   12 *
M  END
>  <kinase>  (20) 
ABL1

>  <family>  (20) 
Abl

>  <group>  (20) 
TK

>  <complex_pdb>  (20) 
8ssn

>  <ligand_pdb>  (20) 
SKI

>  <alt>  (20) 
 

>  <chain>  (20) 
A

>  <atom.prop.subpocket>  (20) 
B1 B1 B1 B1 B1 B1 B1 B1 B1 B1 B1 GA

>  <atom.prop.environment>  (20) 
16 16 16 16 16 16 16 16 16 16 16 na

$$$$
