4xv9_altB_chainA
     RDKit          3D

 18 18  0  0  0  0  0  0  0  0999 V2000
   -3.9253   24.1074   31.2542 F   0  0  0  0  0  0  0  0  0  0  0  0
   -2.9368   24.7261   30.6340 C   0  0  0  0  0  0  0  0  0  0  0  0
   -3.2691   25.9973   30.4841 F   0  0  0  0  0  0  0  0  0  0  0  0
   -2.7761   24.2145   29.4268 F   0  0  0  0  0  0  0  0  0  0  0  0
   -1.6602   24.6469   31.4384 C   0  0  0  0  0  0  0  0  0  0  0  0
   -0.4933   24.0828   30.9111 C   0  0  0  0  0  0  0  0  0  0  0  0
   -0.4990   23.6774   29.9101 H   0  0  0  0  0  0  0  0  0  0  0  0
    0.6794   24.0399   31.6699 C   0  0  0  0  0  0  0  0  0  0  0  0
    1.5720   23.6010   31.2490 H   0  0  0  0  0  0  0  0  0  0  0  0
   -1.6257   25.1747   32.7316 C   0  0  0  0  0  0  0  0  0  0  0  0
   -2.5147   25.6226   33.1506 H   0  0  0  0  0  0  0  0  0  0  0  0
   -0.4524   25.1283   33.4874 C   0  0  0  0  0  0  0  0  0  0  0  0
   -0.4455   25.5384   34.4865 H   0  0  0  0  0  0  0  0  0  0  0  0
    0.7102   24.5595   32.9691 C   0  0  0  0  0  0  0  0  0  0  0  0
    2.0603   24.5336   33.8451 S   0  0  0  0  0  0  0  0  0  0  0  0
    2.1176   25.7349   34.6286 O   0  0  0  0  0  0  0  0  0  0  0  0
    3.2068   24.4983   32.9815 O   0  0  0  0  0  0  0  0  0  0  0  0
    2.0569   23.2729   34.8254 R   0  0  0  0  0  1  0  0  0  0  0  0
  1  2  1  0
  2  3  1  0
  2  4  1  0
  2  5  1  0
  5  6  2  0
  5 10  1  0
  6  7  1  0
  6  8  1  0
  8  9  1  0
  8 14  2  0
 10 11  1  0
 10 12  2  0
 12 13  1  0
 12 14  1  0
 14 15  1  0
 15 16  2  0
 15 17  2  0
 15 18  1  0
M  ISO  1  18  17
M  END
>  <kinase>  (1) 
BRAF

>  <family>  (1) 
RAF

>  <group>  (1) 
TKL

>  <complex_pdb>  (1) 
4xv9

>  <ligand_pdb>  (1) 
1OO

>  <alt>  (1) 
B

>  <chain>  (1) 
A

>  <atom.prop.subpocket>  (1) 
B1 B1 B1 B1 B1 B1 B1 B1 B1 B1 B1 B1 B1 B1 B1 B1 B1 GA

>  <atom.prop.environment>  (1) 
8 8 8 8 16 16 16 16 16 16 16 16 16 16 16 16 16 na

$$$$
4x7o_altA_chainA
     RDKit          3D

 20 20  0  0  0  0  0  0  0  0999 V2000
    7.2679   27.1225   33.0381 F   0  0  0  0  0  0  0  0  0  0  0  0
    6.6021   27.7198   34.0112 C   0  0  0  0  0  0  0  0  0  0  0  0
    6.7410   29.0231   33.8021 F   0  0  0  0  0  0  0  0  0  0  0  0
    7.1378   27.3367   35.1652 F   0  0  0  0  0  0  0  0  0  0  0  0
    5.1053   27.3457   33.9858 C   0  0  0  0  0  0  0  0  0  0  0  0
    4.7415   26.0176   33.7648 C   0  0  0  0  0  0  0  0  0  0  0  0
    5.5020   25.2652   33.6168 H   0  0  0  0  0  0  0  0  0  0  0  0
    4.1053   28.3140   34.1725 C   0  0  0  0  0  0  0  0  0  0  0  0
    4.3799   29.3437   34.3481 H   0  0  0  0  0  0  0  0  0  0  0  0
    2.7538   27.9501   34.1320 C   0  0  0  0  0  0  0  0  0  0  0  0
    1.7646   28.8530   34.2934 F   0  0  0  0  0  0  0  0  0  0  0  0
    2.3994   26.6269   33.9047 C   0  0  0  0  0  0  0  0  0  0  0  0
    1.3579   26.3448   33.8590 H   0  0  0  0  0  0  0  0  0  0  0  0
    3.3929   25.6641   33.7356 C   0  0  0  0  0  0  0  0  0  0  0  0
    3.0028   24.2153   33.4930 C   0  0  0  0  0  0  0  0  0  0  0  0
    3.9091   23.6405   33.3023 H   0  0  0  0  0  0  0  0  0  0  0  0
    2.3551   24.1735   32.6174 H   0  0  0  0  0  0  0  0  0  0  0  0
    2.2598   23.5763   34.6816 C   0  0  0  0  0  0  0  0  0  0  0  0
    1.0344   23.7056   34.7679 O   0  0  0  0  0  0  0  0  0  0  0  0
    2.9676   22.9009   35.6036 R   0  0  0  0  0  1  0  0  0  0  0  0
  1  2  1  0
  2  3  1  0
  2  4  1  0
  2  5  1  0
  5  6  2  0
  5  8  1  0
  6  7  1  0
  6 14  1  0
  8  9  1  0
  8 10  2  0
 10 11  1  0
 10 12  1  0
 12 13  1  0
 12 14  2  0
 14 15  1  0
 15 16  1  0
 15 17  1  0
 15 18  1  0
 18 19  2  0
 18 20  1  0
M  ISO  1  20  19
M  END
>  <kinase>  (2) 
PEK

>  <family>  (2) 
PEK

>  <group>  (2) 
Other

>  <complex_pdb>  (2) 
4x7o

>  <ligand_pdb>  (2) 
3Z6

>  <alt>  (2) 
A

>  <chain>  (2) 
A

>  <atom.prop.subpocket>  (2) 
B1 B1 B1 B1 B1 B1 B1 B1 B1 B1 B1 B1 B1 B1 B1 B1 B1 B1 B1 GA

>  <atom.prop.environment>  (2) 
8 8 8 8 16 16 16 16 16 16 16 16 16 16 8 8 8 8 8 na

$$$$
4dce_chainA
     RDKit          3D

 15 15  0  0  0  0  0  0  0  0999 V2000
    2.7218   22.2115   35.7084 C   0  0  0  0  0  0  0  0  0  0  0  0
    2.5924   21.8420   34.3698 C   0  0  0  0  0  0  0  0  0  0  0  0
    3.2404   21.0873   33.9492 H   0  0  0  0  0  0  0  0  0  0  0  0
    1.6196   22.4542   33.5768 C   0  0  0  0  0  0  0  0  0  0  0  0
    1.5118   22.1742   32.5394 H   0  0  0  0  0  0  0  0  0  0  0  0
    0.7898   23.4257   34.1268 C   0  0  0  0  0  0  0  0  0  0  0  0
   -0.2729   24.0951   33.2567 C   0  0  0  0  0  0  0  0  0  0  0  0
   -0.2298   23.6826   32.2487 H   0  0  0  0  0  0  0  0  0  0  0  0
   -0.0876   25.1686   33.2183 H   0  0  0  0  0  0  0  0  0  0  0  0
   -1.2594   23.9117   33.6825 H   0  0  0  0  0  0  0  0  0  0  0  0
    0.9291   23.7893   35.4630 C   0  0  0  0  0  0  0  0  0  0  0  0
    0.2832   24.5457   35.8838 H   0  0  0  0  0  0  0  0  0  0  0  0
    1.8966   23.1835   36.2605 C   0  0  0  0  0  0  0  0  0  0  0  0
    2.0044   23.4661   37.2972 H   0  0  0  0  0  0  0  0  0  0  0  0
    3.7760   21.5332   36.5683 R   0  0  0  0  0  1  0  0  0  0  0  0
  1  2  2  0
  1 13  1  0
  2  3  1  0
  2  4  1  0
  4  5  1  0
  4  6  2  0
  6  7  1  0
  6 11  1  0
  7  8  1  0
  7  9  1  0
  7 10  1  0
 11 12  1  0
 11 13  2  0
 13 14  1  0
  1 15  1  0
M  ISO  1  15  52
M  END
>  <kinase>  (3) 
ALK

>  <family>  (3) 
ALK

>  <group>  (3) 
TK

>  <complex_pdb>  (3) 
4dce

>  <ligand_pdb>  (3) 
0JF

>  <alt>  (3) 
 

>  <chain>  (3) 
A

>  <atom.prop.subpocket>  (3) 
B1 B1 B1 B1 B1 B1 B1 B1 B1 B1 B1 B1 B1 B1 GA

>  <atom.prop.environment>  (3) 
16 16 16 16 16 16 8 8 8 8 16 16 16 16 na

$$$$
5fbn_altB_chainD
     RDKit          3D

 14 14  0  0  0  0  0  0  0  0999 V2000
    3.9301   21.7088   35.8409 C   0  0  0  0  0  0  0  0  0  0  0  0
    3.0584   21.7487   34.8309 N   0  0  0  0  0  0  0  0  0  0  0  0
    5.2154   22.2761   35.7172 C   0  0  0  0  0  0  0  0  0  0  0  0
    5.8960   22.2474   36.5553 H   0  0  0  0  0  0  0  0  0  0  0  0
    5.6139   22.8712   34.5272 C   0  0  0  0  0  0  0  0  0  0  0  0
    6.9844   23.5279   34.3968 C   0  0  0  0  0  0  0  0  0  0  0  0
    7.9874   22.5942   34.3398 F   0  0  0  0  0  0  0  0  0  0  0  0
    7.2081   24.3365   35.4480 F   0  0  0  0  0  0  0  0  0  0  0  0
    7.0180   24.2833   33.2981 F   0  0  0  0  0  0  0  0  0  0  0  0
    4.6642   22.8978   33.4998 C   0  0  0  0  0  0  0  0  0  0  0  0
    4.9040   23.3691   32.5581 H   0  0  0  0  0  0  0  0  0  0  0  0
    3.4310   22.3283   33.6832 C   0  0  0  0  0  0  0  0  0  0  0  0
    2.7275   22.3480   32.8640 H   0  0  0  0  0  0  0  0  0  0  0  0
    3.4428   21.0780   36.9649 R   0  0  0  0  0  1  0  0  0  0  0  0
  1  2  2  0
  1  3  1  0
  2 12  1  0
  3  4  1  0
  3  5  2  0
  5  6  1  0
  5 10  1  0
  6  7  1  0
  6  8  1  0
  6  9  1  0
 10 11  1  0
 10 12  2  0
 12 13  1  0
  1 14  1  0
M  ISO  1  14  55
M  END
>  <kinase>  (4) 
BTK

>  <family>  (4) 
Tec

>  <group>  (4) 
TK

>  <complex_pdb>  (4) 
5fbn

>  <ligand_pdb>  (4) 
5WF

>  <alt>  (4) 
B

>  <chain>  (4) 
D

>  <atom.prop.subpocket>  (4) 
B1 B1 B1 B1 B1 B1 B1 B1 B1 B1 B1 B1 B1 GA

>  <atom.prop.environment>  (4) 
16 16 16 16 16 8 8 8 8 16 16 16 16 na

$$$$
5dew_chainA
     RDKit          3D

 13 13  0  0  0  0  0  0  0  0999 V2000
    6.8633   22.2799   37.1369 C   0  0  0  0  0  0  0  0  0  0  0  0
    8.6035   23.2845   35.3546 C   0  0  0  0  0  0  0  0  0  0  0  0
    9.3156   23.6761   34.6432 H   0  0  0  0  0  0  0  0  0  0  0  0
    6.4707   23.2645   36.2347 C   0  0  0  0  0  0  0  0  0  0  0  0
    5.4548   23.6309   36.2342 H   0  0  0  0  0  0  0  0  0  0  0  0
    8.1130   21.8140   37.1161 N   0  0  0  0  0  0  0  0  0  0  0  0
    8.9848   22.2978   36.2479 C   0  0  0  0  0  0  0  0  0  0  0  0
    7.3585   23.7479   35.3756 N   0  0  0  0  0  0  0  0  0  0  0  0
   10.3902   21.7658   36.2368 C   0  0  0  0  0  0  0  0  0  0  0  0
   10.9652   22.2747   35.4632 H   0  0  0  0  0  0  0  0  0  0  0  0
   10.3720   20.6955   36.0311 H   0  0  0  0  0  0  0  0  0  0  0  0
   10.8528   21.9412   37.2080 H   0  0  0  0  0  0  0  0  0  0  0  0
    5.8940   21.7362   38.1203 R   0  0  0  0  0  1  0  0  0  0  0  0
  1  4  2  0
  1  6  1  0
  2  3  1  0
  2  7  1  0
  2  8  2  0
  4  5  1  0
  4  8  1  0
  6  7  2  0
  7  9  1  0
  9 10  1  0
  9 11  1  0
  9 12  1  0
  1 13  1  0
M  ISO  1  13  33
M  END
>  <kinase>  (5) 
PAK1

>  <family>  (5) 
STE20

>  <group>  (5) 
STE

>  <complex_pdb>  (5) 
5dew

>  <ligand_pdb>  (5) 
59N

>  <alt>  (5) 
 

>  <chain>  (5) 
A

>  <atom.prop.subpocket>  (5) 
B1 B1 B1 B1 B1 B1 B1 B1 B1 B1 B1 B1 GA

>  <atom.prop.environment>  (5) 
14 14 14 14 14 14 14 14 8 8 8 8 na

$$$$
3u6i_chainA
     RDKit          3D

 23 24  0  0  0  0  0  0  0  0999 V2000
    5.6539   21.9410   35.4424 C   0  0  0  0  0  0  0  0  0  0  0  0
    4.2997   21.7269   35.2400 C   0  0  0  0  0  0  0  0  0  0  0  0
    5.1756   22.9492   33.6252 N   0  0  0  0  0  0  0  0  0  0  0  0
    4.0206   22.4188   34.0669 C   0  0  0  0  0  0  0  0  0  0  0  0
    6.1018   22.6733   34.4171 N   0  0  0  0  0  0  0  0  0  0  0  0
    6.3199   21.4981   36.3803 O   0  0  0  0  0  0  0  0  0  0  0  0
    7.3602   23.1076   34.3093 C   0  0  0  0  0  0  0  0  0  0  0  0
    7.6106   24.4104   34.7608 C   0  0  0  0  0  0  0  0  0  0  0  0
    6.8003   24.9971   35.1679 H   0  0  0  0  0  0  0  0  0  0  0  0
    8.4040   22.3411   33.7900 C   0  0  0  0  0  0  0  0  0  0  0  0
    8.2239   21.3337   33.4450 H   0  0  0  0  0  0  0  0  0  0  0  0
    9.6851   22.8939   33.7224 C   0  0  0  0  0  0  0  0  0  0  0  0
   10.4973   22.3078   33.3184 H   0  0  0  0  0  0  0  0  0  0  0  0
    8.8898   24.9605   34.6926 C   0  0  0  0  0  0  0  0  0  0  0  0
    9.0728   25.9667   35.0398 H   0  0  0  0  0  0  0  0  0  0  0  0
    9.9297   24.1923   34.1693 C   0  0  0  0  0  0  0  0  0  0  0  0
   10.9265   24.6037   34.1101 H   0  0  0  0  0  0  0  0  0  0  0  0
    2.6506   22.5274   33.3734 C   0  0  0  0  0  0  0  0  0  0  0  0
    2.7460   23.1352   32.4737 H   0  0  0  0  0  0  0  0  0  0  0  0
    1.9357   22.9926   34.0521 H   0  0  0  0  0  0  0  0  0  0  0  0
    2.3000   21.5312   33.1035 H   0  0  0  0  0  0  0  0  0  0  0  0
    3.3458   20.9501   36.1744 R   0  0  0  0  0  1  0  0  0  0  0  0
    5.3183   23.8026   32.4067 R   0  0  0  0  0  1  0  0  0  0  0  0
  1  2  1  0
  1  5  1  0
  1  6  2  0
  2  4  2  0
  3  4  1  0
  3  5  1  0
  4 18  1  0
  5  7  1  0
  7  8  2  0
  7 10  1  0
  8  9  1  0
  8 14  1  0
 10 11  1  0
 10 12  2  0
 12 13  1  0
 12 16  1  0
 14 15  1  0
 14 16  2  0
 16 17  1  0
 18 19  1  0
 18 20  1  0
 18 21  1  0
  2 22  1  0
  3 23  1  0
M  ISO  2  22  29  23  51
M  END
>  <kinase>  (6) 
MET

>  <family>  (6) 
Met

>  <group>  (6) 
TK

>  <complex_pdb>  (6) 
3u6i

>  <ligand_pdb>  (6) 
044

>  <alt>  (6) 
 

>  <chain>  (6) 
A

>  <atom.prop.subpocket>  (6) 
B1 B1 B1 B1 B1 B1 B1 B1 B1 B1 B1 B1 B1 B1 B1 B1 B1 B1 B1 B1 B1 GA B2

>  <atom.prop.environment>  (6) 
9 9 9 9 9 9 16 16 16 16 16 16 16 16 16 16 16 8 8 8 8 na na

$$$$
3vs6_chainB
     RDKit          3D

 15 14  0  0  0  0  0  0  0  0999 V2000
    4.5079   21.4011   35.7533 O   0  0  0  0  0  0  0  0  0  0  0  0
    4.3742   22.6708   35.0987 C   0  0  0  0  0  0  0  0  0  0  0  0
    3.7181   23.6862   36.0283 C   0  0  0  0  0  0  0  0  0  0  0  0
    2.7138   23.3484   36.2843 H   0  0  0  0  0  0  0  0  0  0  0  0
    3.6598   24.6526   35.5276 H   0  0  0  0  0  0  0  0  0  0  0  0
    4.3116   23.7832   36.9374 H   0  0  0  0  0  0  0  0  0  0  0  0
    3.5679   22.4676   33.8175 C   0  0  0  0  0  0  0  0  0  0  0  0
    2.5696   22.1100   34.0694 H   0  0  0  0  0  0  0  0  0  0  0  0
    4.0682   21.7334   33.1859 H   0  0  0  0  0  0  0  0  0  0  0  0
    3.4906   23.4143   33.2828 H   0  0  0  0  0  0  0  0  0  0  0  0
    5.7730   23.1710   34.7605 C   0  0  0  0  0  0  0  0  0  0  0  0
    6.3404   23.3130   35.6803 H   0  0  0  0  0  0  0  0  0  0  0  0
    5.7009   24.1194   34.2280 H   0  0  0  0  0  0  0  0  0  0  0  0
    6.2785   22.4385   34.1311 H   0  0  0  0  0  0  0  0  0  0  0  0
    3.4845   20.8263   36.6246 R   0  0  0  0  0  1  0  0  0  0  0  0
  1  2  1  0
  2  3  1  0
  2  7  1  0
  2 11  1  0
  3  4  1  0
  3  5  1  0
  3  6  1  0
  7  8  1  0
  7  9  1  0
  7 10  1  0
 11 12  1  0
 11 13  1  0
 11 14  1  0
  1 15  1  0
M  ISO  1  15   1
M  END
>  <kinase>  (7) 
HCK

>  <family>  (7) 
Src

>  <group>  (7) 
TK

>  <complex_pdb>  (7) 
3vs6

>  <ligand_pdb>  (7) 
VSH

>  <alt>  (7) 
 

>  <chain>  (7) 
B

>  <atom.prop.subpocket>  (7) 
B1 B1 B1 B1 B1 B1 B1 B1 B1 B1 B1 B1 B1 B1 GA

>  <atom.prop.environment>  (7) 
3 4 4 4 4 4 4 4 4 4 4 4 4 4 na

$$$$
6hkm_chainA
     RDKit          3D

 16 16  0  0  0  0  0  0  0  0999 V2000
    6.0385   21.2270   36.5134 C   0  0  0  0  0  0  0  0  0  0  0  0
    5.9962   20.1694   36.2988 H   0  0  0  0  0  0  0  0  0  0  0  0
    7.2361   21.8942   36.4420 C   0  0  0  0  0  0  0  0  0  0  0  0
    8.1376   21.3596   36.1811 H   0  0  0  0  0  0  0  0  0  0  0  0
    7.2882   23.2596   36.7060 C   0  0  0  0  0  0  0  0  0  0  0  0
    9.0498   24.2432   35.4156 C   0  0  0  0  0  0  0  0  0  0  0  0
    4.9278   23.2791   37.1335 C   0  0  0  0  0  0  0  0  0  0  0  0
    4.0290   23.8154   37.4001 H   0  0  0  0  0  0  0  0  0  0  0  0
    4.8720   21.9168   36.8643 C   0  0  0  0  0  0  0  0  0  0  0  0
    8.4651   23.9224   36.6534 O   0  0  0  0  0  0  0  0  0  0  0  0
   10.3220   24.7225   35.6829 F   0  0  0  0  0  0  0  0  0  0  0  0
    9.1538   23.1242   34.5882 F   0  0  0  0  0  0  0  0  0  0  0  0
    8.2774   25.2203   34.8168 F   0  0  0  0  0  0  0  0  0  0  0  0
    6.1325   23.9442   37.0595 C   0  0  0  0  0  0  0  0  0  0  0  0
    6.1782   25.0011   37.2769 H   0  0  0  0  0  0  0  0  0  0  0  0
    3.6118   21.1616   36.9424 R   0  0  0  0  0  1  0  0  0  0  0  0
  1  2  1  0
  1  3  2  0
  1  9  1  0
  3  4  1  0
  3  5  1  0
  5 10  1  0
  5 14  2  0
  6 10  1  0
  6 11  1  0
  6 12  1  0
  6 13  1  0
  7  8  1  0
  7  9  2  0
  7 14  1  0
 14 15  1  0
  9 16  1  0
M  ISO  1  16  23
M  END
>  <kinase>  (8) 
Erk5

>  <family>  (8) 
MAPK

>  <group>  (8) 
CMGC

>  <complex_pdb>  (8) 
6hkm

>  <ligand_pdb>  (8) 
G92

>  <alt>  (8) 
 

>  <chain>  (8) 
A

>  <atom.prop.subpocket>  (8) 
B1 B1 B1 B1 B1 B1 B1 B1 B1 B1 B1 B1 B1 B1 B1 GA

>  <atom.prop.environment>  (8) 
16 16 16 16 16 3 16 16 16 3 3 3 3 16 16 na

$$$$
5fd2_chainA
     RDKit          3D

 15 14  0  0  0  0  0  0  0  0999 V2000
    3.9317   24.3120   35.2015 C   0  0  0  0  0  0  0  0  0  0  0  0
    3.7253   25.1929   35.8094 H   0  0  0  0  0  0  0  0  0  0  0  0
    3.6494   24.5099   34.1674 H   0  0  0  0  0  0  0  0  0  0  0  0
    4.9953   24.0785   35.2494 H   0  0  0  0  0  0  0  0  0  0  0  0
    3.1559   23.1716   35.7117 N   0  0  0  0  0  0  0  0  0  0  0  0
    1.7289   23.5308   35.6598 C   0  0  0  0  0  0  0  0  0  0  0  0
    1.5557   24.4195   36.2668 H   0  0  0  0  0  0  0  0  0  0  0  0
    1.1320   22.7048   36.0464 H   0  0  0  0  0  0  0  0  0  0  0  0
    1.4427   23.7341   34.6279 H   0  0  0  0  0  0  0  0  0  0  0  0
    3.4550   21.8335   34.8061 S   0  0  0  0  0  0  0  0  0  0  0  0
    4.8827   21.8338   34.3628 O   0  0  0  0  0  0  0  0  0  0  0  0
    2.5800   21.7839   33.6041 O   0  0  0  0  0  0  0  0  0  0  0  0
    3.2896   20.5059   35.7281 N   0  0  0  0  0  0  0  0  0  0  0  0
    2.8886   19.6745   35.3182 H   0  0  0  0  0  0  0  0  0  0  0  0
    3.6622   20.4763   36.9975 R   0  0  0  0  0  1  0  0  0  0  0  0
  1  2  1  0
  1  3  1  0
  1  4  1  0
  1  5  1  0
  5  6  1  0
  5 10  1  0
  6  7  1  0
  6  8  1  0
  6  9  1  0
 10 11  2  0
 10 12  2  0
 10 13  1  0
 13 14  1  0
 13 15  1  0
M  ISO  1  15  14
M  END
>  <kinase>  (9) 
BRAF

>  <family>  (9) 
RAF

>  <group>  (9) 
TKL

>  <complex_pdb>  (9) 
5fd2

>  <ligand_pdb>  (9) 
5XJ

>  <alt>  (9) 
 

>  <chain>  (9) 
A

>  <atom.prop.subpocket>  (9) 
B1 B1 B1 B1 B1 B1 B1 B1 B1 B1 B1 B1 B1 B1 GA

>  <atom.prop.environment>  (9) 
5 5 5 5 5 5 5 5 5 5 5 5 5 5 na

$$$$
4fk3_chainA
     RDKit          3D

 11 10  0  0  0  0  0  0  0  0999 V2000
    3.4897   21.6500   34.8626 S   0  0  0  0  0  0  0  0  0  0  0  0
    3.2125   23.2966   35.5196 C   0  0  0  0  0  0  0  0  0  0  0  0
    4.0043   23.9554   35.1628 H   0  0  0  0  0  0  0  0  0  0  0  0
    3.2415   23.2503   36.6082 H   0  0  0  0  0  0  0  0  0  0  0  0
    1.8726   23.8641   35.0893 C   0  0  0  0  0  0  0  0  0  0  0  0
    1.8322   23.9152   34.0013 H   0  0  0  0  0  0  0  0  0  0  0  0
    1.7514   24.8645   35.5048 H   0  0  0  0  0  0  0  0  0  0  0  0
    1.0717   23.2203   35.4529 H   0  0  0  0  0  0  0  0  0  0  0  0
    2.7425   21.6757   33.6086 O   0  0  0  0  0  0  0  0  0  0  0  0
    4.9385   21.5427   34.7202 O   0  0  0  0  0  0  0  0  0  0  0  0
    2.8410   20.7658   36.0188 R   0  0  0  0  0  1  0  0  0  0  0  0
  1  2  1  0
  1  9  2  0
  1 10  2  0
  2  3  1  0
  2  4  1  0
  2  5  1  0
  5  6  1  0
  5  7  1  0
  5  8  1  0
  1 11  1  0
M  ISO  1  11   6
M  END
>  <kinase>  (10) 
BRAF

>  <family>  (10) 
RAF

>  <group>  (10) 
TKL

>  <complex_pdb>  (10) 
4fk3

>  <ligand_pdb>  (10) 
325

>  <alt>  (10) 
 

>  <chain>  (10) 
A

>  <atom.prop.subpocket>  (10) 
B1 B1 B1 B1 B1 B1 B1 B1 B1 B1 GA

>  <atom.prop.environment>  (10) 
12 12 12 12 12 12 12 12 12 12 na

$$$$
3bv3_chainA
     RDKit          3D

  6  5  0  0  0  0  0  0  0  0999 V2000
    3.6706   24.1512   34.0491 N   0  0  0  0  0  0  0  0  0  0  0  0
    4.3720   24.3797   33.3593 H   0  0  0  0  0  0  0  0  0  0  0  0
    2.4111   23.8710   33.6801 C   0  0  0  0  0  0  0  0  0  0  0  0
    1.5185   23.4392   34.4269 O   0  0  0  0  0  0  0  0  0  0  0  0
    3.9878   24.1201   35.4008 R   0  0  0  0  0  1  0  0  0  0  0  0
    1.9986   23.9464   32.2145 R   0  0  0  0  0  1  0  0  0  0  0  0
  1  2  1  0
  1  3  1  0
  3  4  2  0
  1  5  1  0
  3  6  1  0
M  ISO  2   5  20   6  21
M  END
>  <kinase>  (11) 
p38a

>  <family>  (11) 
MAPK

>  <group>  (11) 
CMGC

>  <complex_pdb>  (11) 
3bv3

>  <ligand_pdb>  (11) 
P39

>  <alt>  (11) 
 

>  <chain>  (11) 
A

>  <atom.prop.subpocket>  (11) 
B1 B1 B1 B1 GA B2

>  <atom.prop.environment>  (11) 
5 5 6 6 na na

$$$$
5hes_altB_chainB
     RDKit          3D

 12 11  0  0  0  0  0  0  0  0999 V2000
    4.3192   21.4930   34.9041 S   0  0  0  0  0  0  0  0  0  0  0  0
    3.6388   21.2722   33.6787 O   0  0  0  0  0  0  0  0  0  0  0  0
    5.6932   21.1617   35.0157 O   0  0  0  0  0  0  0  0  0  0  0  0
    4.1539   23.1441   35.4892 C   0  0  0  0  0  0  0  0  0  0  0  0
    4.9850   23.7237   35.8630 H   0  0  0  0  0  0  0  0  0  0  0  0
    2.8444   23.6368   35.4252 C   0  0  0  0  0  0  0  0  0  0  0  0
    1.9875   23.1573   34.9756 H   0  0  0  0  0  0  0  0  0  0  0  0
    2.8809   24.9612   36.1073 C   0  0  0  0  0  0  0  0  0  0  0  0
    1.8853   25.4046   36.0936 H   0  0  0  0  0  0  0  0  0  0  0  0
    3.5785   25.6183   35.5879 H   0  0  0  0  0  0  0  0  0  0  0  0
    3.2058   24.8295   37.1394 H   0  0  0  0  0  0  0  0  0  0  0  0
    3.5475   20.5858   36.0095 R   0  0  0  0  0  1  0  0  0  0  0  0
  1  2  2  0
  1  3  2  0
  1  4  1  0
  4  5  1  0
  4  6  2  0
  6  7  1  0
  6  8  1  0
  8  9  1  0
  8 10  1  0
  8 11  1  0
  1 12  1  0
M  ISO  1  12  26
M  END
>  <kinase>  (12) 
ZAK

>  <family>  (12) 
MLK

>  <group>  (12) 
TKL

>  <complex_pdb>  (12) 
5hes

>  <ligand_pdb>  (12) 
032

>  <alt>  (12) 
B

>  <chain>  (12) 
B

>  <atom.prop.subpocket>  (12) 
B1 B1 B1 B1 B1 B1 B1 B1 B1 B1 B1 GA

>  <atom.prop.environment>  (12) 
12 12 12 12 12 12 12 12 12 12 12 na

$$$$
3wzj_chainA
     RDKit          3D

  9  9  0  0  0  0  0  0  0  0999 V2000
    4.6124   21.3751   36.1838 C   0  0  0  0  0  0  0  0  0  0  0  0
    4.6055   20.3343   35.8603 H   0  0  0  0  0  0  0  0  0  0  0  0
    5.6581   22.4306   36.4435 C   0  0  0  0  0  0  0  0  0  0  0  0
    6.6777   22.2870   36.0858 H   0  0  0  0  0  0  0  0  0  0  0  0
    5.6789   22.9532   37.3998 H   0  0  0  0  0  0  0  0  0  0  0  0
    4.5385   22.7013   35.4552 C   0  0  0  0  0  0  0  0  0  0  0  0
    3.7538   23.4166   35.7016 H   0  0  0  0  0  0  0  0  0  0  0  0
    4.7526   22.7503   34.3876 H   0  0  0  0  0  0  0  0  0  0  0  0
    3.6871   21.2210   37.2998 R   0  0  0  0  0  1  0  0  0  0  0  0
  1  2  1  0
  1  3  1  0
  1  6  1  0
  3  4  1  0
  3  5  1  0
  3  6  1  0
  6  7  1  0
  6  8  1  0
  1  9  1  0
M  ISO  1   9   2
M  END
>  <kinase>  (13) 
TTK

>  <family>  (13) 
TTK

>  <group>  (13) 
Other

>  <complex_pdb>  (13) 
3wzj

>  <ligand_pdb>  (13) 
O43

>  <alt>  (13) 
 

>  <chain>  (13) 
A

>  <atom.prop.subpocket>  (13) 
B1 B1 B1 B1 B1 B1 B1 B1 GA

>  <atom.prop.environment>  (13) 
15 15 15 15 15 15 15 15 na

$$$$
4eqc_altB_chainA
     RDKit          3D

  8  8  0  0  0  0  0  0  0  0999 V2000
    6.4413   22.3356   36.8845 C   0  0  0  0  0  0  0  0  0  0  0  0
    7.7617   21.9080   36.7324 C   0  0  0  0  0  0  0  0  0  0  0  0
    8.1768   21.0996   37.3160 H   0  0  0  0  0  0  0  0  0  0  0  0
    8.4887   22.5776   35.8007 N   0  0  0  0  0  0  0  0  0  0  0  0
    6.1785   23.6578   35.7881 S   0  0  0  0  0  0  0  0  0  0  0  0
    7.7923   23.5344   35.2235 C   0  0  0  0  0  0  0  0  0  0  0  0
    8.2010   24.1830   34.4628 H   0  0  0  0  0  0  0  0  0  0  0  0
    5.4972   21.7091   37.8852 R   0  0  0  0  0  1  0  0  0  0  0  0
  1  2  2  0
  1  5  1  0
  2  3  1  0
  2  4  1  0
  4  6  2  0
  5  6  1  0
  6  7  1  0
  1  8  1  0
M  ISO  1   8  14
M  END
>  <kinase>  (14) 
PAK1

>  <family>  (14) 
STE20

>  <group>  (14) 
STE

>  <complex_pdb>  (14) 
4eqc

>  <ligand_pdb>  (14) 
XR1

>  <alt>  (14) 
B

>  <chain>  (14) 
A

>  <atom.prop.subpocket>  (14) 
B1 B1 B1 B1 B1 B1 B1 GA

>  <atom.prop.environment>  (14) 
14 14 14 14 14 14 14 na

$$$$
6mep_chainA
     RDKit          3D

 11 11  0  0  0  0  0  0  0  0999 V2000
    3.2140   22.9670   34.1325 C   0  0  0  0  0  0  0  0  0  0  0  0
    3.9494   23.0918   33.3377 H   0  0  0  0  0  0  0  0  0  0  0  0
    3.7032   23.9973   34.7928 O   0  0  0  0  0  0  0  0  0  0  0  0
    3.0586   25.1041   34.3873 C   0  0  0  0  0  0  0  0  0  0  0  0
    3.7603   25.8039   33.9334 H   0  0  0  0  0  0  0  0  0  0  0  0
    2.5634   25.5828   35.2322 H   0  0  0  0  0  0  0  0  0  0  0  0
    2.1055   24.6848   33.4375 C   0  0  0  0  0  0  0  0  0  0  0  0
    2.2982   25.1579   32.4746 H   0  0  0  0  0  0  0  0  0  0  0  0
    1.1002   24.9399   33.7730 H   0  0  0  0  0  0  0  0  0  0  0  0
    2.2398   23.3385   33.3354 O   0  0  0  0  0  0  0  0  0  0  0  0
    3.6833   21.5463   34.3896 R   0  0  0  0  0  1  0  0  0  0  0  0
  1  2  1  0
  1  3  1  0
  1 10  1  0
  3  4  1  0
  4  5  1  0
  4  6  1  0
  4  7  1  0
  7  8  1  0
  7  9  1  0
  7 10  1  0
  1 11  1  0
M  ISO  1  11  74
M  END
>  <kinase>  (15) 
MER

>  <family>  (15) 
Axl

>  <group>  (15) 
TK

>  <complex_pdb>  (15) 
6mep

>  <ligand_pdb>  (15) 
9VS

>  <alt>  (15) 
 

>  <chain>  (15) 
A

>  <atom.prop.subpocket>  (15) 
B1 B1 B1 B1 B1 B1 B1 B1 B1 B1 GA

>  <atom.prop.environment>  (15) 
13 13 13 13 13 13 13 13 13 13 na

$$$$
5hhw_altB_chainA
     RDKit          3D

 19 19  0  0  0  0  0  0  0  0999 V2000
    5.0811   20.8461   36.1941 C   0  0  0  0  0  0  0  0  0  0  0  0
    4.1942   21.3316   35.7870 H   0  0  0  0  0  0  0  0  0  0  0  0
    5.2360   19.8916   35.6910 H   0  0  0  0  0  0  0  0  0  0  0  0
    6.3098   21.7508   35.9575 C   0  0  2  0  0  0  0  0  0  0  0  0
    6.3557   22.0049   34.8985 H   0  0  0  0  0  0  0  0  0  0  0  0
    8.7380   21.6671   36.0476 C   0  0  0  0  0  0  0  0  0  0  0  0
    8.8032   21.7928   34.9669 H   0  0  0  0  0  0  0  0  0  0  0  0
    9.5648   21.0458   36.3916 H   0  0  0  0  0  0  0  0  0  0  0  0
    7.4771   21.0183   36.3815 O   0  0  0  0  0  0  0  0  0  0  0  0
    8.8232   23.0669   36.7360 C   0  0  0  0  0  0  0  0  0  0  0  0
    9.6887   23.6044   36.3487 H   0  0  0  0  0  0  0  0  0  0  0  0
    8.9317   22.9308   37.8120 H   0  0  0  0  0  0  0  0  0  0  0  0
    7.5336   23.8990   36.4520 C   0  0  0  0  0  0  0  0  0  0  0  0
    7.5422   24.2077   35.4066 H   0  0  0  0  0  0  0  0  0  0  0  0
    7.5414   24.7817   37.0915 H   0  0  0  0  0  0  0  0  0  0  0  0
    6.2249   23.1005   36.7234 C   0  0  0  0  0  0  0  0  0  0  0  0
    6.1230   22.9121   37.7922 H   0  0  0  0  0  0  0  0  0  0  0  0
    5.3653   23.6708   36.3714 H   0  0  0  0  0  0  0  0  0  0  0  0
    4.8902   20.6138   37.6067 R   0  0  0  0  0  1  0  0  0  0  0  0
  1  2  1  0
  1  3  1  0
  1  4  1  0
  4  5  1  6
  4  9  1  0
  4 16  1  0
  6  7  1  0
  6  8  1  0
  6  9  1  0
  6 10  1  0
 10 11  1  0
 10 12  1  0
 10 13  1  0
 13 14  1  0
 13 15  1  0
 13 16  1  0
 16 17  1  0
 16 18  1  0
  1 19  1  0
M  ISO  1  19   4
M  END
>  <kinase>  (16) 
INSR

>  <family>  (16) 
InsR

>  <group>  (16) 
TK

>  <complex_pdb>  (16) 
5hhw

>  <ligand_pdb>  (16) 
60O

>  <alt>  (16) 
B

>  <chain>  (16) 
A

>  <atom.prop.subpocket>  (16) 
B1 B1 B1 B1 B1 B1 B1 B1 B1 B1 B1 B1 B1 B1 B1 B1 B1 B1 GA

>  <atom.prop.environment>  (16) 
8 8 8 13 13 13 13 13 13 13 13 13 13 13 13 13 13 13 na

$$$$
5w5q_altB_chainA
     RDKit          3D

 11 11  0  0  0  0  0  0  0  0999 V2000
    3.8872   22.0761   36.3545 C   0  0  0  0  0  0  0  0  0  0  0  0
    2.1383   23.2080   36.1047 C   0  0  0  0  0  0  0  0  0  0  0  0
    1.1032   23.4669   35.9378 H   0  0  0  0  0  0  0  0  0  0  0  0
    3.2502   25.5711   36.4236 C   0  0  0  0  0  0  0  0  0  0  0  0
    2.2710   26.0281   36.2807 H   0  0  0  0  0  0  0  0  0  0  0  0
    3.9392   25.9438   35.6657 H   0  0  0  0  0  0  0  0  0  0  0  0
    3.6282   25.8240   37.4142 H   0  0  0  0  0  0  0  0  0  0  0  0
    3.1305   24.0955   36.3013 C   0  0  0  0  0  0  0  0  0  0  0  0
    2.6290   21.9268   36.1467 N   0  0  0  0  0  0  0  0  0  0  0  0
    4.2972   23.3836   36.4601 O   0  0  0  0  0  0  0  0  0  0  0  0
    4.9200   20.9860   36.4974 R   0  0  0  0  0  1  0  0  0  0  0  0
  1  9  2  0
  1 10  1  0
  2  3  1  0
  2  8  2  0
  2  9  1  0
  4  5  1  0
  4  6  1  0
  4  7  1  0
  4  8  1  0
  8 10  1  0
  1 11  1  0
M  ISO  1  11   4
M  END
>  <kinase>  (17) 
HGK

>  <family>  (17) 
STE20

>  <group>  (17) 
STE

>  <complex_pdb>  (17) 
5w5q

>  <ligand_pdb>  (17) 
9X4

>  <alt>  (17) 
B

>  <chain>  (17) 
A

>  <atom.prop.subpocket>  (17) 
B1 B1 B1 B1 B1 B1 B1 B1 B1 B1 GA

>  <atom.prop.environment>  (17) 
14 14 14 8 8 8 8 14 14 14 na

$$$$
6hkn_altA_chainA
     RDKit          3D

  6  5  0  0  0  0  0  0  0  0999 V2000
    8.8863   23.7981   35.3984 C   0  0  0  0  0  0  0  0  0  0  0  0
    8.3818   23.3741   36.6593 O   0  0  0  0  0  0  0  0  0  0  0  0
    9.0541   22.7123   34.5310 F   0  0  0  0  0  0  0  0  0  0  0  0
   10.1126   24.4163   35.6083 F   0  0  0  0  0  0  0  0  0  0  0  0
    8.0087   24.7108   34.8352 F   0  0  0  0  0  0  0  0  0  0  0  0
    7.1609   22.7784   36.7111 R   0  0  0  0  0  1  0  0  0  0  0  0
  1  2  1  0
  1  3  1  0
  1  4  1  0
  1  5  1  0
  2  6  1  0
M  ISO  1   6   4
M  END
>  <kinase>  (18) 
Erk5

>  <family>  (18) 
MAPK

>  <group>  (18) 
CMGC

>  <complex_pdb>  (18) 
6hkn

>  <ligand_pdb>  (18) 
G9E

>  <alt>  (18) 
A

>  <chain>  (18) 
A

>  <atom.prop.subpocket>  (18) 
B1 B1 B1 B1 B1 GA

>  <atom.prop.environment>  (18) 
3 3 3 3 3 na

$$$$
3w33_altA_chainA
     RDKit          3D

 15 16  0  0  0  0  0  0  0  0999 V2000
    3.9855   21.3654   33.7025 C   0  0  0  0  0  0  0  0  0  0  0  0
    4.2378   20.9030   32.7597 H   0  0  0  0  0  0  0  0  0  0  0  0
    4.4901   20.8364   34.8715 C   0  0  0  0  0  0  0  0  0  0  0  0
    5.1327   19.9696   34.8244 H   0  0  0  0  0  0  0  0  0  0  0  0
    3.1635   22.4752   33.7140 C   0  0  0  0  0  0  0  0  0  0  0  0
    2.7669   22.9034   32.8053 H   0  0  0  0  0  0  0  0  0  0  0  0
    2.9499   23.2275   37.3015 C   0  0  0  0  0  0  0  0  0  0  0  0
    3.2537   22.9630   38.3036 H   0  0  0  0  0  0  0  0  0  0  0  0
    2.1263   24.2916   37.0424 C   0  0  0  0  0  0  0  0  0  0  0  0
    1.6926   24.9571   37.7741 H   0  0  0  0  0  0  0  0  0  0  0  0
    3.3783   22.4934   36.1559 C   0  0  0  0  0  0  0  0  0  0  0  0
    4.1915   21.3916   36.1054 C   0  0  0  0  0  0  0  0  0  0  0  0
    2.8785   23.0057   34.9615 C   0  0  0  0  0  0  0  0  0  0  0  0
    1.9111   24.3721   35.3469 S   0  0  0  0  0  0  0  0  0  0  0  0
    4.7333   20.8406   37.2647 R   0  0  0  0  0  1  0  0  0  0  0  0
  1  2  1  0
  1  3  2  0
  1  5  1  0
  3  4  1  0
  3 12  1  0
  5  6  1  0
  5 13  2  0
  7  8  1  0
  7  9  2  0
  7 11  1  0
  9 10  1  0
  9 14  1  0
 11 12  2  0
 11 13  1  0
 13 14  1  0
 12 15  1  0
M  ISO  1  15  54
M  END
>  <kinase>  (19) 
EGFR

>  <family>  (19) 
EGFR

>  <group>  (19) 
TK

>  <complex_pdb>  (19) 
3w33

>  <ligand_pdb>  (19) 
W19

>  <alt>  (19) 
A

>  <chain>  (19) 
A

>  <atom.prop.subpocket>  (19) 
B1 B1 B1 B1 B1 B1 B1 B1 B1 B1 B1 B1 B1 B1 GA

>  <atom.prop.environment>  (19) 
16 16 16 16 16 16 16 16 16 16 16 16 16 16 na

$$$$
5jt2_chainA
     RDKit          3D

 16 15  0  0  0  0  0  0  0  0999 V2000
    3.2849   25.6080   35.7256 C   0  0  0  0  0  0  0  0  0  0  0  0
    2.4235   26.2317   35.4867 H   0  0  0  0  0  0  0  0  0  0  0  0
    4.1236   25.8872   35.0879 H   0  0  0  0  0  0  0  0  0  0  0  0
    3.5593   25.7523   36.7706 H   0  0  0  0  0  0  0  0  0  0  0  0
    2.9338   24.1473   35.4907 C   0  0  0  0  0  0  0  0  0  0  0  0
    2.6547   24.0161   34.4452 H   0  0  0  0  0  0  0  0  0  0  0  0
    2.0904   23.8812   36.1279 H   0  0  0  0  0  0  0  0  0  0  0  0
    4.1110   23.2137   35.8107 C   0  0  0  0  0  0  0  0  0  0  0  0
    4.1940   23.1088   36.8924 H   0  0  0  0  0  0  0  0  0  0  0  0
    5.0272   23.6538   35.4169 H   0  0  0  0  0  0  0  0  0  0  0  0
    3.8852   21.5546   35.0704 S   0  0  0  0  0  0  0  0  0  0  0  0
    2.9118   20.5336   35.9814 N   0  0  0  0  0  0  0  0  0  0  0  0
    2.0693   20.1373   35.5900 H   0  0  0  0  0  0  0  0  0  0  0  0
    5.2178   20.9344   34.9419 O   0  0  0  0  0  0  0  0  0  0  0  0
    3.3759   21.6043   33.6975 O   0  0  0  0  0  0  0  0  0  0  0  0
    3.3032   20.2391   37.3215 R   0  0  0  0  0  1  0  0  0  0  0  0
  1  2  1  0
  1  3  1  0
  1  4  1  0
  1  5  1  0
  5  6  1  0
  5  7  1  0
  5  8  1  0
  8  9  1  0
  8 10  1  0
  8 11  1  0
 11 12  1  0
 11 14  1  0
 11 15  1  0
 12 13  1  0
 12 16  1  0
M  CHG  2  14  -1  15  -1
M  ISO  1  16  84
M  END
>  <kinase>  (20) 
BRAF

>  <family>  (20) 
RAF

>  <group>  (20) 
TKL

>  <complex_pdb>  (20) 
5jt2

>  <ligand_pdb>  (20) 
6NC

>  <alt>  (20) 
 

>  <chain>  (20) 
A

>  <atom.prop.subpocket>  (20) 
B1 B1 B1 B1 B1 B1 B1 B1 B1 B1 B1 B1 B1 B1 B1 GA

>  <atom.prop.environment>  (20) 
5 5 5 5 5 5 5 5 5 5 5 5 5 5 5 na

$$$$
5c9c_altB_chainA
     RDKit          3D

 26 25  0  0  0  0  0  0  0  0999 V2000
    1.0675   23.1879   34.2066 O   0  0  0  0  0  0  0  0  0  0  0  0
    1.9762   23.4247   33.4011 C   0  0  0  0  0  0  0  0  0  0  0  0
    1.7973   23.5116   32.0697 N   0  0  0  0  0  0  0  0  0  0  0  0
    2.6180   23.7019   31.5125 H   0  0  0  0  0  0  0  0  0  0  0  0
    0.5287   23.3574   31.3461 C   0  0  0  0  0  0  0  0  0  0  0  0
   -0.0697   22.5900   31.8371 H   0  0  0  0  0  0  0  0  0  0  0  0
    0.7388   23.0535   30.3207 H   0  0  0  0  0  0  0  0  0  0  0  0
   -0.2604   24.6698   31.3265 C   0  0  0  0  0  0  0  0  0  0  0  0
    0.4336   25.4531   31.0218 H   0  0  0  0  0  0  0  0  0  0  0  0
   -0.5927   24.8559   32.3477 H   0  0  0  0  0  0  0  0  0  0  0  0
   -1.4855   24.7908   30.4326 C   0  0  0  0  0  0  0  0  0  0  0  0
   -1.8900   26.2418   30.5385 C   0  0  0  0  0  0  0  0  0  0  0  0
   -2.0703   26.4934   31.5836 H   0  0  0  0  0  0  0  0  0  0  0  0
   -2.8003   26.4082   29.9625 H   0  0  0  0  0  0  0  0  0  0  0  0
   -1.0914   26.8712   30.1458 H   0  0  0  0  0  0  0  0  0  0  0  0
   -2.6505   23.9928   30.9881 C   0  0  0  0  0  0  0  0  0  0  0  0
   -2.8330   24.2877   32.0215 H   0  0  0  0  0  0  0  0  0  0  0  0
   -2.4135   22.9295   30.9502 H   0  0  0  0  0  0  0  0  0  0  0  0
   -3.5418   24.1878   30.3918 H   0  0  0  0  0  0  0  0  0  0  0  0
   -1.2202   24.3854   28.9834 C   0  0  0  0  0  0  0  0  0  0  0  0
   -0.3826   24.9628   28.5922 H   0  0  0  0  0  0  0  0  0  0  0  0
   -2.1086   24.5813   28.3829 H   0  0  0  0  0  0  0  0  0  0  0  0
   -0.9803   23.3230   28.9414 H   0  0  0  0  0  0  0  0  0  0  0  0
    3.2438   23.5911   33.7956 N   0  0  0  0  0  0  0  0  0  0  0  0
    3.9319   23.7154   33.0668 H   0  0  0  0  0  0  0  0  0  0  0  0
    3.7011   23.6104   35.0728 R   0  0  0  0  0  1  0  0  0  0  0  0
  1  2  2  0
  2  3  1  0
  2 24  1  0
  3  4  1  0
  3  5  1  0
  5  6  1  0
  5  7  1  0
  5  8  1  0
  8  9  1  0
  8 10  1  0
  8 11  1  0
 11 12  1  0
 11 16  1  0
 11 20  1  0
 12 13  1  0
 12 14  1  0
 12 15  1  0
 16 17  1  0
 16 18  1  0
 16 19  1  0
 20 21  1  0
 20 22  1  0
 20 23  1  0
 24 25  1  0
 24 26  1  0
M  ISO  1  26  25
M  END
>  <kinase>  (21) 
BRAF

>  <family>  (21) 
RAF

>  <group>  (21) 
TKL

>  <complex_pdb>  (21) 
5c9c

>  <ligand_pdb>  (21) 
4Z5

>  <alt>  (21) 
B

>  <chain>  (21) 
A

>  <atom.prop.subpocket>  (21) 
B1 B1 B1 B1 B1 B1 B1 B1 B1 B1 B1 B1 B1 B1 B1 B1 B1 B1 B1 B1 B1 B1 B1 B1 B1 GA

>  <atom.prop.environment>  (21) 
1 1 5 5 4 4 4 4 4 4 4 4 4 4 4 4 4 4 4 4 4 4 4 5 5 na

$$$$
4ksp_chainB
     RDKit          3D

  5  4  0  0  0  0  0  0  0  0999 V2000
   -2.4497   25.1232   30.7822 C   0  0  0  0  0  0  0  0  0  0  0  0
   -3.5028   24.3215   31.0972 F   0  0  0  0  0  0  0  0  0  0  0  0
   -2.3071   25.9616   31.8466 F   0  0  0  0  0  0  0  0  0  0  0  0
   -2.8366   25.8973   29.7282 F   0  0  0  0  0  0  0  0  0  0  0  0
   -1.2050   24.3626   30.4987 R   0  0  0  0  0  1  0  0  0  0  0  0
  1  2  1  0
  1  3  1  0
  1  4  1  0
  1  5  1  0
M  ISO  1   5  12
M  END
>  <kinase>  (22) 
BRAF

>  <family>  (22) 
RAF

>  <group>  (22) 
TKL

>  <complex_pdb>  (22) 
4ksp

>  <ligand_pdb>  (22) 
1SU

>  <alt>  (22) 
 

>  <chain>  (22) 
B

>  <atom.prop.subpocket>  (22) 
B1 B1 B1 B1 B2

>  <atom.prop.environment>  (22) 
8 8 8 8 na

$$$$
4ksp_chainB
     RDKit          3D

  7  6  0  0  0  0  0  0  0  0999 V2000
    2.1674   23.8392   33.4509 C   0  0  0  0  0  0  0  0  0  0  0  0
    2.2582   24.1293   31.9661 C   0  0  0  0  0  0  0  0  0  0  0  0
    3.0770   23.5247   31.5761 H   0  0  0  0  0  0  0  0  0  0  0  0
    2.5069   25.1858   31.8658 H   0  0  0  0  0  0  0  0  0  0  0  0
    1.1886   23.3827   34.0255 O   0  0  0  0  0  0  0  0  0  0  0  0
    3.3791   24.1734   34.0354 R   0  0  0  0  0  1  0  0  0  0  0  0
    1.0686   23.8757   31.0788 R   0  0  0  0  0  1  0  0  0  0  0  0
  1  2  1  0
  1  5  2  0
  2  3  1  0
  2  4  1  0
  1  6  1  0
  2  7  1  0
M  ISO  2   6  45   7  32
M  END
>  <kinase>  (23) 
BRAF

>  <family>  (23) 
RAF

>  <group>  (23) 
TKL

>  <complex_pdb>  (23) 
4ksp

>  <ligand_pdb>  (23) 
1SU

>  <alt>  (23) 
 

>  <chain>  (23) 
B

>  <atom.prop.subpocket>  (23) 
B1 B1 B1 B1 B1 GA B2

>  <atom.prop.environment>  (23) 
8 8 8 8 8 na na

$$$$
