4joa_altA_chainA
     RDKit          3D

 12 12  0  0  0  0  0  0  0  0999 V2000
    8.6096   18.9702   35.9932 F   0  0  0  0  0  0  0  0  0  0  0  0
    7.5607   19.7241   36.3682 C   0  0  0  0  0  0  0  0  0  0  0  0
    6.3353   19.1202   36.6460 C   0  0  0  0  0  0  0  0  0  0  0  0
    6.2313   18.0492   36.5537 H   0  0  0  0  0  0  0  0  0  0  0  0
    7.6968   21.1061   36.4726 C   0  0  0  0  0  0  0  0  0  0  0  0
    8.6446   21.5757   36.2548 H   0  0  0  0  0  0  0  0  0  0  0  0
    6.6063   21.8792   36.8587 C   0  0  0  0  0  0  0  0  0  0  0  0
    6.7084   22.9510   36.9431 H   0  0  0  0  0  0  0  0  0  0  0  0
    5.3810   21.2724   37.1371 C   0  0  0  0  0  0  0  0  0  0  0  0
    4.3362   22.0363   37.5058 F   0  0  0  0  0  0  0  0  0  0  0  0
    5.2430   19.8913   37.0425 C   0  0  0  0  0  0  0  0  0  0  0  0
    3.9153   19.2119   37.3203 *   0  0  0  0  0  0  0  0  0  0  0  0
  1  2  1  0
  2  3  2  0
  2  5  1  0
  3  4  1  0
  3 11  1  0
  5  6  1  0
  5  7  2  0
  7  8  1  0
  7  9  1  0
  9 10  1  0
  9 11  2  0
 11 12  1  0
V   12 *
M  END
>  <kinase>  (1) 
ALK

>  <family>  (1) 
ALK

>  <group>  (1) 
TK

>  <complex_pdb>  (1) 
4joa

>  <ligand_pdb>  (1) 
3DK

>  <alt>  (1) 
A

>  <chain>  (1) 
A

>  <atom.prop.subpocket>  (1) 
B2 B2 B2 B2 B2 B2 B2 B2 B2 B2 B2 GA

>  <atom.prop.environment>  (1) 
16 16 16 16 16 16 16 16 16 16 16 na

$$$$
3m11_chainA
     RDKit          3D

 18 18  0  0  0  0  0  0  0  0999 V2000
    4.8309   18.5525   35.3540 N   0  0  0  0  0  0  0  0  0  0  0  0
    4.6742   19.3344   34.7342 H   0  0  0  0  0  0  0  0  0  0  0  0
    5.8624   17.7387   35.1491 C   0  0  0  0  0  0  0  0  0  0  0  0
    6.6436   18.0162   34.1093 N   0  0  0  0  0  0  0  0  0  0  0  0
    6.4384   18.8115   33.5215 H   0  0  0  0  0  0  0  0  0  0  0  0
    7.6948   17.2466   33.8432 C   0  0  0  0  0  0  0  0  0  0  0  0
    8.1236   17.0865   32.5301 C   0  0  0  0  0  0  0  0  0  0  0  0
    7.6029   17.5869   31.7270 H   0  0  0  0  0  0  0  0  0  0  0  0
    9.2227   16.2821   32.2514 C   0  0  0  0  0  0  0  0  0  0  0  0
    9.5567   16.1584   31.2318 H   0  0  0  0  0  0  0  0  0  0  0  0
    9.8918   15.6368   33.2853 C   0  0  0  0  0  0  0  0  0  0  0  0
   10.7450   15.0112   33.0686 H   0  0  0  0  0  0  0  0  0  0  0  0
    9.4629   15.7968   34.5975 C   0  0  0  0  0  0  0  0  0  0  0  0
    9.9826   15.2955   35.4006 H   0  0  0  0  0  0  0  0  0  0  0  0
    8.3649   16.6020   34.8758 C   0  0  0  0  0  0  0  0  0  0  0  0
    8.0321   16.7268   35.8956 H   0  0  0  0  0  0  0  0  0  0  0  0
    6.0824   16.7772   35.8841 O   0  0  0  0  0  0  0  0  0  0  0  0
    4.0049   18.3376   36.3749 *   0  0  0  0  0  0  0  0  0  0  0  0
  1  2  1  0
  1  3  1  0
  3  4  1  0
  3 17  2  0
  4  5  1  0
  4  6  1  0
  6  7  2  0
  6 15  1  0
  7  8  1  0
  7  9  1  0
  9 10  1  0
  9 11  2  0
 11 12  1  0
 11 13  1  0
 13 14  1  0
 13 15  2  0
 15 16  1  0
 18  1  1  0
V   18 *
M  END
>  <kinase>  (2) 
AurA

>  <family>  (2) 
Aur

>  <group>  (2) 
Other

>  <complex_pdb>  (2) 
3m11

>  <ligand_pdb>  (2) 
AKI

>  <alt>  (2) 
 

>  <chain>  (2) 
A

>  <atom.prop.subpocket>  (2) 
B2 B2 B2 B2 B2 B2 B2 B2 B2 B2 B2 B2 B2 B2 B2 B2 B2 GA

>  <atom.prop.environment>  (2) 
5 5 1 5 5 16 16 16 16 16 16 16 16 16 16 16 1 na

$$$$
4uzd_chainB
     RDKit          3D

 15 16  0  0  0  0  0  0  0  0999 V2000
    9.5091   21.4603   35.2741 C   0  0  0  0  0  0  0  0  0  0  0  0
   10.5076   21.0707   35.1415 H   0  0  0  0  0  0  0  0  0  0  0  0
    9.1073   22.5875   34.5501 C   0  0  0  0  0  0  0  0  0  0  0  0
    9.7996   23.0520   33.8636 H   0  0  0  0  0  0  0  0  0  0  0  0
    7.8339   23.1190   34.6991 C   0  0  0  0  0  0  0  0  0  0  0  0
    7.5298   24.0049   34.1615 H   0  0  0  0  0  0  0  0  0  0  0  0
    8.6447   20.8364   36.1589 C   0  0  0  0  0  0  0  0  0  0  0  0
    8.9648   19.9804   36.7344 H   0  0  0  0  0  0  0  0  0  0  0  0
    7.3524   21.3403   36.2877 C   0  0  0  0  0  0  0  0  0  0  0  0
    6.9678   22.4696   35.5640 C   0  0  0  0  0  0  0  0  0  0  0  0
    5.6176   22.6257   35.8006 N   0  0  0  0  0  0  0  0  0  0  0  0
    5.2657   21.6040   36.5930 C   0  0  0  0  0  0  0  0  0  0  0  0
    6.2529   20.8116   36.9512 N   0  0  0  0  0  0  0  0  0  0  0  0
    6.2191   20.0090   37.5634 H   0  0  0  0  0  0  0  0  0  0  0  0
    3.9450   21.4823   36.8695 *   0  0  0  0  0  0  0  0  0  0  0  0
  1  2  1  0
  1  3  2  0
  1  7  1  0
  3  4  1  0
  3  5  1  0
  5  6  1  0
  5 10  2  0
  7  8  1  0
  7  9  2  0
  9 10  1  0
  9 13  1  0
 10 11  1  0
 11 12  2  0
 12 13  1  0
 13 14  1  0
 12 15  1  0
V   15 *
M  END
>  <kinase>  (3) 
AurA

>  <family>  (3) 
Aur

>  <group>  (3) 
Other

>  <complex_pdb>  (3) 
4uzd

>  <ligand_pdb>  (3) 
QMN

>  <alt>  (3) 
 

>  <chain>  (3) 
B

>  <atom.prop.subpocket>  (3) 
B2 B2 B2 B2 B2 B2 B2 B2 B2 B2 B2 B2 B2 B2 GA

>  <atom.prop.environment>  (3) 
14 14 14 14 14 14 14 14 14 14 14 14 14 14 na

$$$$
5fbo_altA_chainA
     RDKit          3D

 14 14  0  0  0  0  0  0  0  0999 V2000
    5.3862   20.3823   36.2602 C   0  0  0  0  0  0  0  0  0  0  0  0
    4.6536   20.4534   35.1352 N   0  0  0  0  0  0  0  0  0  0  0  0
    5.3068   20.6958   33.9882 C   0  0  0  0  0  0  0  0  0  0  0  0
    4.7348   20.7466   33.0735 H   0  0  0  0  0  0  0  0  0  0  0  0
    6.6681   20.8830   33.9181 C   0  0  0  0  0  0  0  0  0  0  0  0
    7.1399   21.0948   32.9699 H   0  0  0  0  0  0  0  0  0  0  0  0
    7.4301   20.7978   35.0738 C   0  0  0  0  0  0  0  0  0  0  0  0
    6.7786   20.5461   36.2795 C   0  0  0  0  0  0  0  0  0  0  0  0
    7.3316   20.4789   37.2047 H   0  0  0  0  0  0  0  0  0  0  0  0
    8.9139   20.9989   35.0450 C   0  0  0  0  0  0  0  0  0  0  0  0
    9.4279   21.4166   36.2080 F   0  0  0  0  0  0  0  0  0  0  0  0
    9.5773   19.8877   34.7335 F   0  0  0  0  0  0  0  0  0  0  0  0
    9.2904   21.9425   34.1929 F   0  0  0  0  0  0  0  0  0  0  0  0
    4.5875   20.1204   37.3848 *   0  0  0  0  0  0  0  0  0  0  0  0
  1  2  2  0
  1  8  1  0
  2  3  1  0
  3  4  1  0
  3  5  2  0
  5  6  1  0
  5  7  1  0
  7  8  2  0
  7 10  1  0
  8  9  1  0
 10 11  1  0
 10 12  1  0
 10 13  1  0
 14  1  1  0
V   14 *
M  END
>  <kinase>  (4) 
BTK

>  <family>  (4) 
Tec

>  <group>  (4) 
TK

>  <complex_pdb>  (4) 
5fbo

>  <ligand_pdb>  (4) 
5WH

>  <alt>  (4) 
A

>  <chain>  (4) 
A

>  <atom.prop.subpocket>  (4) 
B2 B2 B2 B2 B2 B2 B2 B2 B2 B2 B2 B2 B2 GA

>  <atom.prop.environment>  (4) 
14 14 14 14 14 14 16 14 14 8 8 8 8 na

$$$$
3w2o_altB_chainA
     RDKit          3D

 15 15  0  0  0  0  0  0  0  0999 V2000
    6.6079   22.0083   37.3160 C   0  0  0  0  0  0  0  0  0  0  0  0
    6.0781   22.9251   37.5286 H   0  0  0  0  0  0  0  0  0  0  0  0
    7.9743   19.6271   36.7493 C   0  0  0  0  0  0  0  0  0  0  0  0
    7.5289   19.9011   38.0462 C   0  0  0  0  0  0  0  0  0  0  0  0
    7.7203   19.1887   38.8350 H   0  0  0  0  0  0  0  0  0  0  0  0
    8.7186   18.3358   36.4636 C   0  0  0  0  0  0  0  0  0  0  0  0
    8.2218   17.3250   37.1775 F   0  0  0  0  0  0  0  0  0  0  0  0
    8.6549   18.0388   35.1681 F   0  0  0  0  0  0  0  0  0  0  0  0
    9.9912   18.4934   36.7935 F   0  0  0  0  0  0  0  0  0  0  0  0
    7.7412   20.5669   35.7388 C   0  0  0  0  0  0  0  0  0  0  0  0
    8.0913   20.3740   34.7355 H   0  0  0  0  0  0  0  0  0  0  0  0
    7.0591   21.7522   36.0196 C   0  0  0  0  0  0  0  0  0  0  0  0
    6.8803   22.4712   35.2338 H   0  0  0  0  0  0  0  0  0  0  0  0
    6.8379   21.0858   38.3394 C   0  0  0  0  0  0  0  0  0  0  0  0
    6.4030   21.3490   39.6308 *   0  0  0  0  0  0  0  0  0  0  0  0
  1  2  1  0
  1 12  2  0
  1 14  1  0
  3  4  1  0
  3  6  1  0
  3 10  2  0
  4  5  1  0
  4 14  2  0
  6  7  1  0
  6  8  1  0
  6  9  1  0
 10 11  1  0
 10 12  1  0
 12 13  1  0
 14 15  1  0
V   15 *
M  END
>  <kinase>  (5) 
EGFR

>  <family>  (5) 
EGFR

>  <group>  (5) 
TK

>  <complex_pdb>  (5) 
3w2o

>  <ligand_pdb>  (5) 
03P

>  <alt>  (5) 
B

>  <chain>  (5) 
A

>  <atom.prop.subpocket>  (5) 
B2 B2 B2 B2 B2 B2 B2 B2 B2 B2 B2 B2 B2 B2 GA

>  <atom.prop.environment>  (5) 
16 16 16 16 16 8 8 8 8 16 16 16 16 16 na

$$$$
4qtb_altB_chainA
     RDKit          3D

 31 32  0  0  0  0  0  0  0  0999 V2000
    5.4230   18.4645   34.8847 C   0  0  0  0  0  0  0  0  0  0  0  0
    4.8174   19.2288   34.3977 H   0  0  0  0  0  0  0  0  0  0  0  0
    5.3923   17.5473   34.2966 H   0  0  0  0  0  0  0  0  0  0  0  0
    6.8562   18.9534   34.9042 C   0  0  0  0  0  0  0  0  0  0  0  0
    7.3352   19.3764   35.9453 O   0  0  0  0  0  0  0  0  0  0  0  0
    7.5323   18.9115   33.7421 N   0  0  0  0  0  0  0  0  0  0  0  0
    7.1566   18.1577   32.5405 C   0  0  0  0  0  0  0  0  0  0  0  0
    7.3894   18.7479   31.6541 H   0  0  0  0  0  0  0  0  0  0  0  0
    6.0878   17.9448   32.5648 H   0  0  0  0  0  0  0  0  0  0  0  0
    7.9290   16.8567   32.4972 C   0  0  0  0  0  0  0  0  0  0  0  0
    7.7472   16.3704   31.5388 H   0  0  0  0  0  0  0  0  0  0  0  0
    7.5795   16.2121   33.3037 H   0  0  0  0  0  0  0  0  0  0  0  0
    9.3743   17.0734   32.6539 N   0  0  0  0  0  0  0  0  0  0  0  0
    9.7416   18.0201   33.7170 C   0  0  0  0  0  0  0  0  0  0  0  0
   10.7965   18.2741   33.6134 H   0  0  0  0  0  0  0  0  0  0  0  0
    9.5755   17.5455   34.6841 H   0  0  0  0  0  0  0  0  0  0  0  0
    8.9341   19.2748   33.6500 C   0  0  0  0  0  0  0  0  0  0  0  0
    9.2012   19.9313   34.4781 H   0  0  0  0  0  0  0  0  0  0  0  0
    9.1224   19.7858   32.7058 H   0  0  0  0  0  0  0  0  0  0  0  0
   10.1102   15.8563   32.6062 C   0  0  0  0  0  0  0  0  0  0  0  0
    9.4821   14.7023   32.1619 C   0  0  0  0  0  0  0  0  0  0  0  0
    8.4552   14.7526   31.8313 H   0  0  0  0  0  0  0  0  0  0  0  0
   10.1444   13.4885   32.1335 C   0  0  0  0  0  0  0  0  0  0  0  0
    9.6240   12.6088   31.7847 H   0  0  0  0  0  0  0  0  0  0  0  0
   11.4537   13.3811   32.5414 C   0  0  0  0  0  0  0  0  0  0  0  0
   12.1111   14.5446   33.0000 C   0  0  0  0  0  0  0  0  0  0  0  0
   13.1353   14.4781   33.3361 H   0  0  0  0  0  0  0  0  0  0  0  0
   11.4539   15.7887   33.0264 C   0  0  0  0  0  0  0  0  0  0  0  0
   11.9699   16.6759   33.3627 H   0  0  0  0  0  0  0  0  0  0  0  0
    4.8442   18.1914   36.1364 *   0  0  0  0  0  0  0  0  0  0  0  0
   12.0975   12.0232   32.5982 *   0  0  0  0  0  0  0  0  0  0  0  0
  1  2  1  0
  1  3  1  0
  1  4  1  0
  4  5  2  0
  4  6  1  0
  6  7  1  0
  6 17  1  0
  7  8  1  0
  7  9  1  0
  7 10  1  0
 10 11  1  0
 10 12  1  0
 10 13  1  0
 13 14  1  0
 13 20  1  0
 14 15  1  0
 14 16  1  0
 14 17  1  0
 17 18  1  0
 17 19  1  0
 20 21  2  0
 20 28  1  0
 21 22  1  0
 21 23  1  0
 23 24  1  0
 23 25  2  0
 25 26  1  0
 26 27  1  0
 26 28  2  0
 28 29  1  0
 30  1  1  0
 25 31  1  0
V   30 *
V   31 *
M  END
>  <kinase>  (6) 
Erk1

>  <family>  (6) 
MAPK

>  <group>  (6) 
CMGC

>  <complex_pdb>  (6) 
4qtb

>  <ligand_pdb>  (6) 
38Z

>  <alt>  (6) 
B

>  <chain>  (6) 
A

>  <atom.prop.subpocket>  (6) 
B2 B2 B2 B2 B2 B2 B2 B2 B2 B2 B2 B2 B2 B2 B2 B2 B2 B2 B2 B2 B2 B2 B2 B2 B2 B2 B2 B2 B2 GA X-B2

>  <atom.prop.environment>  (6) 
4 1 1 1 1 5 5 5 5 5 5 5 5 5 5 5 5 5 5 16 16 16 16 16 16 16 16 16 16 na na

$$$$
4fv2_altB_chainA
     RDKit          3D

 20 21  0  0  0  0  0  0  0  0999 V2000
    3.1888   16.6635   37.0363 C   0  0  0  0  0  0  0  0  0  0  0  0
    3.2740   17.3394   36.1854 H   0  0  0  0  0  0  0  0  0  0  0  0
    2.5277   15.8361   36.7784 H   0  0  0  0  0  0  0  0  0  0  0  0
    4.5567   16.1021   37.3346 C   0  0  0  0  0  0  0  0  0  0  0  0
    4.8896   15.6341   38.6115 C   0  0  0  0  0  0  0  0  0  0  0  0
    4.1572   15.6940   39.4029 H   0  0  0  0  0  0  0  0  0  0  0  0
    6.1385   15.0952   38.8835 C   0  0  0  0  0  0  0  0  0  0  0  0
    6.3868   14.7466   39.8751 H   0  0  0  0  0  0  0  0  0  0  0  0
    7.0603   15.0154   37.8505 C   0  0  0  0  0  0  0  0  0  0  0  0
    8.3283   14.4831   37.8789 O   0  0  0  0  0  0  0  0  0  0  0  0
    8.9402   14.6098   36.5635 C   0  0  0  0  0  0  0  0  0  0  0  0
    9.2300   13.6266   36.1928 H   0  0  0  0  0  0  0  0  0  0  0  0
    9.8207   15.2494   36.6240 H   0  0  0  0  0  0  0  0  0  0  0  0
    7.9098   15.2330   35.6298 C   0  0  0  0  0  0  0  0  0  0  0  0
    7.6295   14.5482   34.8294 H   0  0  0  0  0  0  0  0  0  0  0  0
    8.2729   16.1661   35.1991 H   0  0  0  0  0  0  0  0  0  0  0  0
    6.7656   15.4710   36.5795 C   0  0  0  0  0  0  0  0  0  0  0  0
    5.5179   16.0204   36.3299 C   0  0  0  0  0  0  0  0  0  0  0  0
    5.2875   16.3906   35.3418 H   0  0  0  0  0  0  0  0  0  0  0  0
    2.5938   17.3959   38.1442 *   0  0  0  0  0  0  0  0  0  0  0  0
  1  2  1  0
  1  3  1  0
  1  4  1  0
  4  5  2  0
  4 18  1  0
  5  6  1  0
  5  7  1  0
  7  8  1  0
  7  9  2  0
  9 10  1  0
  9 17  1  0
 10 11  1  0
 11 12  1  0
 11 13  1  0
 11 14  1  0
 14 15  1  0
 14 16  1  0
 14 17  1  0
 17 18  2  0
 18 19  1  0
 20  1  1  0
V   20 *
M  END
>  <kinase>  (7) 
Erk2

>  <family>  (7) 
MAPK

>  <group>  (7) 
CMGC

>  <complex_pdb>  (7) 
4fv2

>  <ligand_pdb>  (7) 
EK5

>  <alt>  (7) 
B

>  <chain>  (7) 
A

>  <atom.prop.subpocket>  (7) 
B2 B2 B2 B2 B2 B2 B2 B2 B2 B2 B2 B2 B2 B2 B2 B2 B2 B2 B2 GA

>  <atom.prop.environment>  (7) 
4 4 4 16 16 16 16 16 16 16 16 16 16 16 16 16 16 16 16 na

$$$$
6g9d_altB_chainA
     RDKit          3D

 21 20  0  0  0  0  0  0  0  0999 V2000
    7.4850   18.6840   32.5113 C   0  0  0  0  0  0  0  0  0  0  0  0
    8.3065   19.2721   32.1022 H   0  0  0  0  0  0  0  0  0  0  0  0
    6.5408   19.1905   32.3115 H   0  0  0  0  0  0  0  0  0  0  0  0
    7.4751   17.6993   32.0439 H   0  0  0  0  0  0  0  0  0  0  0  0
    7.6710   18.5298   34.0199 C   0  0  0  0  0  0  0  0  0  0  0  0
    8.9828   17.8007   34.3151 C   0  0  0  0  0  0  0  0  0  0  0  0
    9.8178   18.3830   33.9254 H   0  0  0  0  0  0  0  0  0  0  0  0
    8.9692   16.8207   33.8380 H   0  0  0  0  0  0  0  0  0  0  0  0
    9.0963   17.6787   35.3923 H   0  0  0  0  0  0  0  0  0  0  0  0
    6.1875   17.6037   35.8426 C   0  0  0  0  0  0  0  0  0  0  0  0
    4.9658   16.7391   36.0929 C   0  0  0  0  0  0  0  0  0  0  0  0
    5.2609   15.6926   36.0168 H   0  0  0  0  0  0  0  0  0  0  0  0
    4.2210   16.9630   35.3292 H   0  0  0  0  0  0  0  0  0  0  0  0
    7.6761   19.9076   34.6849 C   0  0  0  0  0  0  0  0  0  0  0  0
    8.5042   20.4976   34.2921 H   0  0  0  0  0  0  0  0  0  0  0  0
    7.7923   19.7907   35.7624 H   0  0  0  0  0  0  0  0  0  0  0  0
    6.7354   20.4164   34.4740 H   0  0  0  0  0  0  0  0  0  0  0  0
    6.5486   17.7310   34.5527 N   0  0  0  0  0  0  0  0  0  0  0  0
    5.9930   17.2265   33.8767 H   0  0  0  0  0  0  0  0  0  0  0  0
    6.7889   18.1423   36.7690 O   0  0  0  0  0  0  0  0  0  0  0  0
    4.3662   16.9559   37.4001 *   0  0  0  0  0  0  0  0  0  0  0  0
  1  2  1  0
  1  3  1  0
  1  4  1  0
  1  5  1  0
  5  6  1  0
  5 14  1  0
  5 18  1  0
  6  7  1  0
  6  8  1  0
  6  9  1  0
 10 11  1  0
 10 18  1  0
 10 20  2  0
 11 12  1  0
 11 13  1  0
 14 15  1  0
 14 16  1  0
 14 17  1  0
 18 19  1  0
 11 21  1  0
V   21 *
M  END
>  <kinase>  (8) 
Erk2

>  <family>  (8) 
MAPK

>  <group>  (8) 
CMGC

>  <complex_pdb>  (8) 
6g9d

>  <ligand_pdb>  (8) 
ER8

>  <alt>  (8) 
B

>  <chain>  (8) 
A

>  <atom.prop.subpocket>  (8) 
B2 B2 B2 B2 B2 B2 B2 B2 B2 B2 B2 B2 B2 B2 B2 B2 B2 B2 B2 B2 GA

>  <atom.prop.environment>  (8) 
4 4 4 4 4 4 4 4 4 1 8 1 1 4 4 4 4 5 5 1 na

$$$$
6g9h_altB_chainA
     RDKit          3D

 24 23  0  0  0  0  0  0  0  0999 V2000
    6.4702   15.7505   33.9570 C   0  0  0  0  0  0  0  0  0  0  0  0
    5.6938   15.1690   34.4542 H   0  0  0  0  0  0  0  0  0  0  0  0
    7.3640   15.1378   33.8398 H   0  0  0  0  0  0  0  0  0  0  0  0
    6.1153   16.0668   32.9762 H   0  0  0  0  0  0  0  0  0  0  0  0
    6.0070   17.2419   35.8475 C   0  0  0  0  0  0  0  0  0  0  0  0
    4.6555   16.5165   35.9625 C   0  0  0  0  0  0  0  0  0  0  0  0
    4.8204   15.4476   35.8271 H   0  0  0  0  0  0  0  0  0  0  0  0
    3.9940   16.8843   35.1782 H   0  0  0  0  0  0  0  0  0  0  0  0
    7.3145   19.3396   34.2759 C   0  0  0  0  0  0  0  0  0  0  0  0
    6.9540   19.6024   35.2705 H   0  0  0  0  0  0  0  0  0  0  0  0
    6.4962   19.4185   33.5603 H   0  0  0  0  0  0  0  0  0  0  0  0
    8.1157   20.0204   33.9882 H   0  0  0  0  0  0  0  0  0  0  0  0
    6.7894   16.9306   34.7648 N   0  0  0  0  0  0  0  0  0  0  0  0
    6.3471   18.0594   36.6949 O   0  0  0  0  0  0  0  0  0  0  0  0
    7.8442   17.9054   34.2884 C   0  0  0  0  0  0  0  0  0  0  0  0
    9.0538   17.8311   35.2138 C   0  0  0  0  0  0  0  0  0  0  0  0
    8.7422   18.0427   36.2366 H   0  0  0  0  0  0  0  0  0  0  0  0
    9.7963   18.5651   34.9009 H   0  0  0  0  0  0  0  0  0  0  0  0
    9.4875   16.8322   35.1653 H   0  0  0  0  0  0  0  0  0  0  0  0
    8.3325   17.6016   32.8678 C   0  0  0  0  0  0  0  0  0  0  0  0
    7.4906   17.6462   32.1769 H   0  0  0  0  0  0  0  0  0  0  0  0
    8.7727   16.6048   32.8403 H   0  0  0  0  0  0  0  0  0  0  0  0
    9.0815   18.3377   32.5759 H   0  0  0  0  0  0  0  0  0  0  0  0
    4.0163   16.7287   37.2464 *   0  0  0  0  0  0  0  0  0  0  0  0
  1  2  1  0
  1  3  1  0
  1  4  1  0
  1 13  1  0
  5  6  1  0
  5 13  1  0
  5 14  2  0
  6  7  1  0
  6  8  1  0
  9 10  1  0
  9 11  1  0
  9 12  1  0
  9 15  1  0
 13 15  1  0
 15 16  1  0
 15 20  1  0
 16 17  1  0
 16 18  1  0
 16 19  1  0
 20 21  1  0
 20 22  1  0
 20 23  1  0
  6 24  1  0
V   24 *
M  END
>  <kinase>  (9) 
Erk2

>  <family>  (9) 
MAPK

>  <group>  (9) 
CMGC

>  <complex_pdb>  (9) 
6g9h

>  <ligand_pdb>  (9) 
ERW

>  <alt>  (9) 
B

>  <chain>  (9) 
A

>  <atom.prop.subpocket>  (9) 
B2 B2 B2 B2 B2 B2 B2 B2 B2 B2 B2 B2 B2 B2 B2 B2 B2 B2 B2 B2 B2 B2 B2 GA

>  <atom.prop.environment>  (9) 
5 5 5 5 1 8 1 1 4 4 4 4 5 1 4 4 4 4 4 4 4 4 4 na

$$$$
6ge0_altA_chainA
     RDKit          3D

 29 29  0  0  0  0  0  0  0  0999 V2000
    8.3309   13.0632   32.7455 C   0  0  0  0  0  0  0  0  0  0  0  0
    8.3514   12.0335   32.3885 H   0  0  0  0  0  0  0  0  0  0  0  0
    7.6928   13.6608   32.0944 H   0  0  0  0  0  0  0  0  0  0  0  0
    7.9376   13.0877   33.7617 H   0  0  0  0  0  0  0  0  0  0  0  0
    9.8423   14.8928   33.1525 C   0  0  0  0  0  0  0  0  0  0  0  0
   11.4101   16.6369   33.6425 C   0  0  0  0  0  0  0  0  0  0  0  0
   12.4304   16.9821   33.7207 H   0  0  0  0  0  0  0  0  0  0  0  0
   10.3639   17.4859   33.9590 C   0  0  0  0  0  0  0  0  0  0  0  0
   10.5743   18.5030   34.2551 H   0  0  0  0  0  0  0  0  0  0  0  0
    9.0457   17.0473   33.9009 C   0  0  0  0  0  0  0  0  0  0  0  0
    8.7974   15.7425   33.4843 C   0  0  0  0  0  0  0  0  0  0  0  0
    7.7794   15.3877   33.4186 H   0  0  0  0  0  0  0  0  0  0  0  0
    7.5199   18.8512   33.0426 C   0  0  0  0  0  0  0  0  0  0  0  0
    8.3993   19.3790   32.6737 H   0  0  0  0  0  0  0  0  0  0  0  0
    6.7601   19.5743   33.3393 H   0  0  0  0  0  0  0  0  0  0  0  0
    7.1237   18.2105   32.2548 H   0  0  0  0  0  0  0  0  0  0  0  0
    6.0561   17.6215   35.8359 C   0  0  0  0  0  0  0  0  0  0  0  0
    4.7515   16.8796   36.0363 C   0  0  0  0  0  0  0  0  0  0  0  0
    4.9324   15.8129   35.9040 H   0  0  0  0  0  0  0  0  0  0  0  0
    4.0365   17.2223   35.2884 H   0  0  0  0  0  0  0  0  0  0  0  0
    9.6576   13.5981   32.7346 O   0  0  0  0  0  0  0  0  0  0  0  0
   11.1458   15.3492   33.2272 C   0  0  0  0  0  0  0  0  0  0  0  0
   11.9609   14.6934   32.9589 H   0  0  0  0  0  0  0  0  0  0  0  0
    7.9070   17.9970   34.2465 C   0  0  1  0  0  0  0  0  0  0  0  0
    8.2784   18.6364   35.0473 H   0  0  0  0  0  0  0  0  0  0  0  0
    6.7245   17.2955   34.7321 N   0  0  0  0  0  0  0  0  0  0  0  0
    6.3899   16.5089   34.1943 H   0  0  0  0  0  0  0  0  0  0  0  0
    6.4447   18.4575   36.6444 O   0  0  0  0  0  0  0  0  0  0  0  0
    4.1849   17.0951   37.3539 *   0  0  0  0  0  0  0  0  0  0  0  0
  1  2  1  0
  1  3  1  0
  1  4  1  0
  1 21  1  0
  5 11  2  0
  5 21  1  0
  5 22  1  0
  6  7  1  0
  6  8  1  0
  6 22  2  0
  8  9  1  0
  8 10  2  0
 10 11  1  0
 10 24  1  0
 11 12  1  0
 13 14  1  0
 13 15  1  0
 13 16  1  0
 13 24  1  0
 17 18  1  0
 17 26  1  0
 17 28  2  0
 18 19  1  0
 18 20  1  0
 22 23  1  0
 24 25  1  1
 24 26  1  0
 26 27  1  0
 18 29  1  0
V   29 *
M  END
>  <kinase>  (10) 
Erk2

>  <family>  (10) 
MAPK

>  <group>  (10) 
CMGC

>  <complex_pdb>  (10) 
6ge0

>  <ligand_pdb>  (10) 
EVQ

>  <alt>  (10) 
A

>  <chain>  (10) 
A

>  <atom.prop.subpocket>  (10) 
B2 B2 B2 B2 B2 B2 B2 B2 B2 B2 B2 B2 B2 B2 B2 B2 B2 B2 B2 B2 B2 B2 B2 B2 B2 B2 B2 B2 GA

>  <atom.prop.environment>  (10) 
3 3 3 3 16 16 16 16 16 16 16 16 4 4 4 4 1 8 1 1 3 16 16 4 4 5 5 1 na

$$$$
6opi_chainA
     RDKit          3D

 30 31  0  0  0  0  0  0  0  0999 V2000
    5.2790   18.6212   35.1161 C   0  0  0  0  0  0  0  0  0  0  0  0
    4.8861   19.6022   35.3831 H   0  0  0  0  0  0  0  0  0  0  0  0
    4.8760   18.3191   34.1494 H   0  0  0  0  0  0  0  0  0  0  0  0
    6.7976   18.7230   34.9977 C   0  0  0  0  0  0  0  0  0  0  0  0
    7.3521   19.1127   36.0156 O   0  0  0  0  0  0  0  0  0  0  0  0
    7.4901   18.8182   33.8264 N   0  0  0  0  0  0  0  0  0  0  0  0
    8.8831   19.2583   33.9320 C   0  0  0  0  0  0  0  0  0  0  0  0
    8.9843   19.9303   34.7843 H   0  0  0  0  0  0  0  0  0  0  0  0
    9.1643   19.7840   33.0195 H   0  0  0  0  0  0  0  0  0  0  0  0
    9.8060   18.0556   34.1258 C   0  0  0  0  0  0  0  0  0  0  0  0
    9.8262   17.8052   35.1864 H   0  0  0  0  0  0  0  0  0  0  0  0
   10.8077   18.3349   33.7993 H   0  0  0  0  0  0  0  0  0  0  0  0
    9.3707   16.8079   33.3413 C   0  0  0  0  0  0  0  0  0  0  0  0
    8.1097   16.6923   32.8699 C   0  0  0  0  0  0  0  0  0  0  0  0
    7.7025   15.7198   32.6359 H   0  0  0  0  0  0  0  0  0  0  0  0
    7.2700   17.9423   32.6720 C   0  0  0  0  0  0  0  0  0  0  0  0
    7.5733   18.4515   31.7572 H   0  0  0  0  0  0  0  0  0  0  0  0
    6.2156   17.6740   32.6060 H   0  0  0  0  0  0  0  0  0  0  0  0
   10.2755   15.6471   33.4830 C   0  0  0  0  0  0  0  0  0  0  0  0
   11.6546   15.8601   33.7485 C   0  0  0  0  0  0  0  0  0  0  0  0
   12.0484   16.8631   33.8210 H   0  0  0  0  0  0  0  0  0  0  0  0
   12.5128   14.7345   33.9182 C   0  0  0  0  0  0  0  0  0  0  0  0
   13.5566   14.9127   34.1306 H   0  0  0  0  0  0  0  0  0  0  0  0
   12.0626   13.3863   33.8216 C   0  0  0  0  0  0  0  0  0  0  0  0
   10.6824   13.1877   33.5567 C   0  0  0  0  0  0  0  0  0  0  0  0
   10.2868   12.1857   33.4801 H   0  0  0  0  0  0  0  0  0  0  0  0
    9.8188   14.3072   33.3919 C   0  0  0  0  0  0  0  0  0  0  0  0
    8.7731   14.1292   33.1891 H   0  0  0  0  0  0  0  0  0  0  0  0
    4.8324   17.6353   36.1452 *   0  0  0  0  0  0  0  0  0  0  0  0
   12.9594   12.2767   34.0520 *   0  0  0  0  0  0  0  0  0  0  0  0
  1  2  1  0
  1  3  1  0
  1  4  1  0
  4  5  2  0
  4  6  1  0
  6  7  1  0
  6 16  1  0
  7  8  1  0
  7  9  1  0
  7 10  1  0
 10 11  1  0
 10 12  1  0
 10 13  1  0
 13 14  2  0
 13 19  1  0
 14 15  1  0
 14 16  1  0
 16 17  1  0
 16 18  1  0
 19 20  2  0
 19 27  1  0
 20 21  1  0
 20 22  1  0
 22 23  1  0
 22 24  2  0
 24 25  1  0
 25 26  1  0
 25 27  2  0
 27 28  1  0
 29  1  1  0
 24 30  1  0
V   29 *
V   30 *
M  END
>  <kinase>  (11) 
Erk2

>  <family>  (11) 
MAPK

>  <group>  (11) 
CMGC

>  <complex_pdb>  (11) 
6opi

>  <ligand_pdb>  (11) 
N0V

>  <alt>  (11) 
 

>  <chain>  (11) 
A

>  <atom.prop.subpocket>  (11) 
B2 B2 B2 B2 B2 B2 B2 B2 B2 B2 B2 B2 B2 B2 B2 B2 B2 B2 B2 B2 B2 B2 B2 B2 B2 B2 B2 B2 GA X-B2

>  <atom.prop.environment>  (11) 
4 1 1 1 1 5 5 5 5 5 5 5 5 5 5 5 5 5 5 5 5 5 5 16 5 5 5 5 na na

$$$$
7nqw_altB_chainA
     RDKit          3D

 29 30  0  0  0  0  0  0  0  0999 V2000
    5.1424   16.8598   35.9531 C   0  0  0  0  0  0  0  0  0  0  0  0
    6.2820   17.8610   35.8944 C   0  0  0  0  0  0  0  0  0  0  0  0
    8.0566   18.9352   34.5999 C   0  0  0  0  0  0  0  0  0  0  0  0
    9.4723   18.4003   34.6308 C   0  0  0  0  0  0  0  0  0  0  0  0
    9.8288   17.5435   33.4407 C   0  0  0  0  0  0  0  0  0  0  0  0
    9.3352   16.1275   33.5039 C   0  0  0  0  0  0  0  0  0  0  0  0
    8.5112   13.4836   33.5888 C   0  0  0  0  0  0  0  0  0  0  0  0
    6.4578   18.6378   36.8146 O   0  0  0  0  0  0  0  0  0  0  0  0
    7.0812   17.8673   34.7960 N   0  0  0  0  0  0  0  0  0  0  0  0
   10.2635   15.0940   33.4207 C   0  0  0  0  0  0  0  0  0  0  0  0
    9.8536   13.7845   33.4610 C   0  0  0  0  0  0  0  0  0  0  0  0
    7.5810   14.4929   33.6637 C   0  0  0  0  0  0  0  0  0  0  0  0
    7.9758   15.8248   33.6375 C   0  0  0  0  0  0  0  0  0  0  0  0
    6.9289   16.9123   33.6962 C   0  0  0  0  0  0  0  0  0  0  0  0
    4.5309   17.0203   35.2043 H   0  0  0  0  0  0  0  0  0  0  0  0
    5.5037   15.9484   35.8671 H   0  0  0  0  0  0  0  0  0  0  0  0
    7.9467   19.6052   35.3049 H   0  0  0  0  0  0  0  0  0  0  0  0
    7.8911   19.3666   33.7370 H   0  0  0  0  0  0  0  0  0  0  0  0
    9.5882   17.8676   35.4460 H   0  0  0  0  0  0  0  0  0  0  0  0
   10.0945   19.1572   34.6718 H   0  0  0  0  0  0  0  0  0  0  0  0
    9.4637   17.9624   32.6400 H   0  0  0  0  0  0  0  0  0  0  0  0
   10.8023   17.5303   33.3504 H   0  0  0  0  0  0  0  0  0  0  0  0
    8.2286   12.5711   33.6212 H   0  0  0  0  0  0  0  0  0  0  0  0
   11.1931   15.2975   33.3357 H   0  0  0  0  0  0  0  0  0  0  0  0
   10.4975   13.0815   33.4156 H   0  0  0  0  0  0  0  0  0  0  0  0
    6.6550   14.2762   33.7490 H   0  0  0  0  0  0  0  0  0  0  0  0
    6.0460   16.4945   33.7675 H   0  0  0  0  0  0  0  0  0  0  0  0
    6.9504   17.4110   32.8502 H   0  0  0  0  0  0  0  0  0  0  0  0
    4.4114   16.9674   37.2013 *   0  0  0  0  0  0  0  0  0  0  0  0
  1  2  1  0
  1 15  1  0
  1 16  1  0
  2  8  2  0
  2  9  1  0
  3  4  1  0
  3  9  1  0
  3 17  1  0
  3 18  1  0
  4  5  1  0
  4 19  1  0
  4 20  1  0
  5  6  1  0
  5 21  1  0
  5 22  1  0
  6 10  2  0
  6 13  1  0
  7 11  2  0
  7 12  1  0
  7 23  1  0
  9 14  1  0
 10 11  1  0
 10 24  1  0
 11 25  1  0
 12 13  2  0
 12 26  1  0
 13 14  1  0
 14 27  1  0
 14 28  1  0
  1 29  1  0
V   29 *
M  END
>  <kinase>  (12) 
Erk2

>  <family>  (12) 
MAPK

>  <group>  (12) 
CMGC

>  <complex_pdb>  (12) 
7nqw

>  <ligand_pdb>  (12) 
UNW

>  <alt>  (12) 
B

>  <chain>  (12) 
A

>  <atom.prop.subpocket>  (12) 
B2 B2 B2 B2 B2 B2 B2 B2 B2 B2 B2 B2 B2 B2 B2 B2 B2 B2 B2 B2 B2 B2 B2 B2 B2 B2 B2 B2 GA

>  <atom.prop.environment>  (12) 
8 1 5 5 5 5 5 1 5 5 5 5 5 5 1 1 5 5 5 5 5 5 5 5 5 5 5 5 na

$$$$
7nr3_altB_chainA
     RDKit          3D

 29 30  0  0  0  0  0  0  0  0999 V2000
    4.8077   16.7720   35.9654 C   0  0  0  0  0  0  0  0  0  0  0  0
    6.2733   17.1110   36.2056 C   0  0  0  0  0  0  0  0  0  0  0  0
    8.6754   16.8272   35.7364 C   0  0  0  0  0  0  0  0  0  0  0  0
    9.3482   15.8721   36.7241 C   0  0  0  0  0  0  0  0  0  0  0  0
    8.4010   14.9617   37.4646 C   0  0  0  0  0  0  0  0  0  0  0  0
    8.3237   15.0041   38.8543 C   0  0  0  0  0  0  0  0  0  0  0  0
    6.6933   13.2620   37.4686 C   0  0  0  0  0  0  0  0  0  0  0  0
    6.5440   17.9283   37.0579 O   0  0  0  0  0  0  0  0  0  0  0  0
    7.2733   16.4920   35.4669 N   0  0  0  0  0  0  0  0  0  0  0  0
    7.4504   14.1832   39.5361 C   0  0  0  0  0  0  0  0  0  0  0  0
    6.6371   13.3109   38.8425 C   0  0  0  0  0  0  0  0  0  0  0  0
    7.5763   14.0755   36.7637 C   0  0  0  0  0  0  0  0  0  0  0  0
    7.6090   14.0342   35.2569 C   0  0  0  0  0  0  0  0  0  0  0  0
    7.0560   15.3109   34.6280 C   0  0  0  0  0  0  0  0  0  0  0  0
    4.4422   17.3810   35.2847 H   0  0  0  0  0  0  0  0  0  0  0  0
    4.7375   15.8562   35.6261 H   0  0  0  0  0  0  0  0  0  0  0  0
    8.7194   17.7398   36.0934 H   0  0  0  0  0  0  0  0  0  0  0  0
    9.1712   16.8125   34.8894 H   0  0  0  0  0  0  0  0  0  0  0  0
    9.9911   15.3178   36.2337 H   0  0  0  0  0  0  0  0  0  0  0  0
    9.8486   16.4019   37.3790 H   0  0  0  0  0  0  0  0  0  0  0  0
    8.8887   15.6021   39.3403 H   0  0  0  0  0  0  0  0  0  0  0  0
    6.1251   12.6597   36.9925 H   0  0  0  0  0  0  0  0  0  0  0  0
    7.4156   14.2112   40.4889 H   0  0  0  0  0  0  0  0  0  0  0  0
    6.0354   12.7402   39.3154 H   0  0  0  0  0  0  0  0  0  0  0  0
    8.5334   13.9026   34.9585 H   0  0  0  0  0  0  0  0  0  0  0  0
    7.0784   13.2699   34.9471 H   0  0  0  0  0  0  0  0  0  0  0  0
    6.1010   15.2034   34.4722 H   0  0  0  0  0  0  0  0  0  0  0  0
    7.4900   15.4556   33.7601 H   0  0  0  0  0  0  0  0  0  0  0  0
    4.0239   16.8878   37.1839 *   0  0  0  0  0  0  0  0  0  0  0  0
  1  2  1  0
  1 15  1  0
  1 16  1  0
  2  8  2  0
  2  9  1  0
  3  4  1  0
  3  9  1  0
  3 17  1  0
  3 18  1  0
  4  5  1  0
  4 19  1  0
  4 20  1  0
  5  6  2  0
  5 12  1  0
  6 10  1  0
  6 21  1  0
  7 11  1  0
  7 12  2  0
  7 22  1  0
  9 14  1  0
 10 11  2  0
 10 23  1  0
 11 24  1  0
 12 13  1  0
 13 14  1  0
 13 25  1  0
 13 26  1  0
 14 27  1  0
 14 28  1  0
  1 29  1  0
V   29 *
M  END
>  <kinase>  (13) 
Erk2

>  <family>  (13) 
MAPK

>  <group>  (13) 
CMGC

>  <complex_pdb>  (13) 
7nr3

>  <ligand_pdb>  (13) 
UO5

>  <alt>  (13) 
B

>  <chain>  (13) 
A

>  <atom.prop.subpocket>  (13) 
B2 B2 B2 B2 B2 B2 B2 B2 B2 B2 B2 B2 B2 B2 B2 B2 B2 B2 B2 B2 B2 B2 B2 B2 B2 B2 B2 B2 GA

>  <atom.prop.environment>  (13) 
8 1 5 5 5 5 5 1 5 5 5 5 5 5 1 1 5 5 5 5 5 5 5 5 5 5 5 5 na

$$$$
2c0i_altB_chainB
     RDKit          3D

 19 20  0  0  0  0  0  0  0  0999 V2000
    4.7466   21.0225   35.6350 C   0  0  0  0  0  0  0  0  0  0  0  0
    4.7047   22.0249   34.7156 N   0  0  0  0  0  0  0  0  0  0  0  0
    5.9600   20.3449   35.5459 C   0  0  0  0  0  0  0  0  0  0  0  0
    6.3042   19.4996   36.1232 H   0  0  0  0  0  0  0  0  0  0  0  0
    5.8596   22.0684   34.0018 C   0  0  0  0  0  0  0  0  0  0  0  0
    3.5699   22.9613   34.5151 C   0  0  0  0  0  0  0  0  0  0  0  0
    2.7678   22.7142   35.2106 H   0  0  0  0  0  0  0  0  0  0  0  0
    3.2036   22.8745   33.4922 H   0  0  0  0  0  0  0  0  0  0  0  0
    3.9054   23.9826   34.6954 H   0  0  0  0  0  0  0  0  0  0  0  0
    6.6368   21.0469   34.4999 C   0  0  0  0  0  0  0  0  0  0  0  0
    6.3401   22.8747   32.9565 C   0  0  0  0  0  0  0  0  0  0  0  0
    5.7232   23.6711   32.5671 H   0  0  0  0  0  0  0  0  0  0  0  0
    7.9142   20.8124   33.9639 C   0  0  0  0  0  0  0  0  0  0  0  0
    8.5227   20.0092   34.3527 H   0  0  0  0  0  0  0  0  0  0  0  0
    7.6110   22.6541   32.4165 C   0  0  0  0  0  0  0  0  0  0  0  0
    7.9788   23.2769   31.6145 H   0  0  0  0  0  0  0  0  0  0  0  0
    8.4003   21.6186   32.9257 C   0  0  0  0  0  0  0  0  0  0  0  0
    9.3848   21.4400   32.5190 H   0  0  0  0  0  0  0  0  0  0  0  0
    3.6688   20.6445   36.5961 *   0  0  0  0  0  0  0  0  0  0  0  0
  1  2  1  0
  1  3  2  0
  2  5  1  0
  2  6  1  0
  3  4  1  0
  3 10  1  0
  5 10  2  0
  5 11  1  0
  6  7  1  0
  6  8  1  0
  6  9  1  0
 10 13  1  0
 11 12  1  0
 11 15  2  0
 13 14  1  0
 13 17  2  0
 15 16  1  0
 15 17  1  0
 17 18  1  0
 19  1  1  0
V   19 *
M  END
>  <kinase>  (14) 
HCK

>  <family>  (14) 
Src

>  <group>  (14) 
TK

>  <complex_pdb>  (14) 
2c0i

>  <ligand_pdb>  (14) 
L1G

>  <alt>  (14) 
B

>  <chain>  (14) 
B

>  <atom.prop.subpocket>  (14) 
B2 B2 B2 B2 B2 B2 B2 B2 B2 B2 B2 B2 B2 B2 B2 B2 B2 B2 GA

>  <atom.prop.environment>  (14) 
14 9 14 14 14 8 8 8 8 14 14 14 14 14 14 14 14 14 na

$$$$
7qgp_chainA
     RDKit          3D

 20 20  0  0  0  0  0  0  0  0999 V2000
    5.6432   20.1553   34.3662 C   0  0  0  0  0  0  0  0  0  0  0  0
    5.2850   19.6439   33.4728 H   0  0  0  0  0  0  0  0  0  0  0  0
    5.1685   21.1337   34.4398 H   0  0  0  0  0  0  0  0  0  0  0  0
    7.7821   21.4289   34.8738 C   0  0  0  0  0  0  0  0  0  0  0  0
    7.8836   19.4519   33.4867 C   0  0  0  0  0  0  0  0  0  0  0  0
    7.3854   18.6233   33.0055 H   0  0  0  0  0  0  0  0  0  0  0  0
    7.1355   20.3546   34.2388 C   0  0  0  0  0  0  0  0  0  0  0  0
    9.2479   19.5954   33.3442 C   0  0  0  0  0  0  0  0  0  0  0  0
    9.8172   18.8854   32.7625 H   0  0  0  0  0  0  0  0  0  0  0  0
    9.8702   20.6570   33.9548 C   0  0  0  0  0  0  0  0  0  0  0  0
    9.1613   21.5611   34.7195 C   0  0  0  0  0  0  0  0  0  0  0  0
    9.6788   22.3772   35.2019 H   0  0  0  0  0  0  0  0  0  0  0  0
    5.2640   19.3681   35.5333 N   0  0  0  0  0  0  0  0  0  0  0  0
    5.7622   18.5106   35.7249 H   0  0  0  0  0  0  0  0  0  0  0  0
   11.5729   20.9160   33.6890 Cl  0  0  0  0  0  0  0  0  0  0  0  0
    7.0275   22.4330   35.7076 C   0  0  0  0  0  0  0  0  0  0  0  0
    5.9686   22.1749   35.7170 H   0  0  0  0  0  0  0  0  0  0  0  0
    7.1551   23.4282   35.2816 H   0  0  0  0  0  0  0  0  0  0  0  0
    7.4133   22.4220   36.7269 H   0  0  0  0  0  0  0  0  0  0  0  0
    4.2664   19.7457   36.3712 *   0  0  0  0  0  0  0  0  0  0  0  0
  1  2  1  0
  1  3  1  0
  1  7  1  0
  1 13  1  0
  4  7  2  0
  4 11  1  0
  4 16  1  0
  5  6  1  0
  5  7  1  0
  5  8  2  0
  8  9  1  0
  8 10  1  0
 10 11  2  0
 10 15  1  0
 11 12  1  0
 13 14  1  0
 16 17  1  0
 16 18  1  0
 16 19  1  0
 20 13  1  0
V   20 *
M  END
>  <kinase>  (15) 
LOK

>  <family>  (15) 
STE20

>  <group>  (15) 
STE

>  <complex_pdb>  (15) 
7qgp

>  <ligand_pdb>  (15) 
DJ8

>  <alt>  (15) 
 

>  <chain>  (15) 
A

>  <atom.prop.subpocket>  (15) 
B2 B2 B2 B2 B2 B2 B2 B2 B2 B2 B2 B2 B2 B2 B2 B2 B2 B2 B2 GA

>  <atom.prop.environment>  (15) 
4 4 4 16 16 16 16 16 16 16 16 16 5 5 16 8 8 8 8 na

$$$$
7xlp_chainA
     RDKit          3D

 13 13  0  0  0  0  0  0  0  0999 V2000
    3.5996   22.7716   33.7682 C   0  0  0  0  0  0  0  0  0  0  0  0
    3.6357   23.1939   32.7640 H   0  0  0  0  0  0  0  0  0  0  0  0
    3.6662   23.5744   34.5025 H   0  0  0  0  0  0  0  0  0  0  0  0
    2.6612   22.2334   33.9025 H   0  0  0  0  0  0  0  0  0  0  0  0
    4.7714   21.8082   33.9585 C   0  0  0  0  0  0  0  0  0  0  0  0
    5.6817   21.6105   32.8825 C   0  0  0  0  0  0  0  0  0  0  0  0
    5.5617   22.1254   31.9408 H   0  0  0  0  0  0  0  0  0  0  0  0
    6.7614   20.7008   33.1030 C   0  0  0  0  0  0  0  0  0  0  0  0
    7.4726   20.5219   32.3102 H   0  0  0  0  0  0  0  0  0  0  0  0
    6.0094   20.2964   35.2600 C   0  0  0  0  0  0  0  0  0  0  0  0
    6.9113   20.0573   34.2880 N   0  0  0  0  0  0  0  0  0  0  0  0
    4.9207   21.1566   35.1646 N   0  0  0  0  0  0  0  0  0  0  0  0
    6.2145   19.5994   36.4856 *   0  0  0  0  0  0  0  0  0  0  0  0
  1  2  1  0
  1  3  1  0
  1  4  1  0
  1  5  1  0
  5  6  2  0
  5 12  1  0
  6  7  1  0
  6  8  1  0
  8  9  1  0
  8 11  2  0
 10 11  1  0
 10 12  2  0
 10 13  1  0
V   13 *
M  END
>  <kinase>  (16) 
MAP2K1

>  <family>  (16) 
STE7

>  <group>  (16) 
STE

>  <complex_pdb>  (16) 
7xlp

>  <ligand_pdb>  (16) 
FZC

>  <alt>  (16) 
 

>  <chain>  (16) 
A

>  <atom.prop.subpocket>  (16) 
B2 B2 B2 B2 B2 B2 B2 B2 B2 B2 B2 B2 GA

>  <atom.prop.environment>  (16) 
8 8 8 8 14 14 14 14 14 14 14 14 na

$$$$
7aw2_chainA
     RDKit          3D

 12 12  0  0  0  0  0  0  0  0999 V2000
    8.5976   22.6336   31.1114 C   0  0  0  0  0  0  0  0  0  0  0  0
    9.0048   21.8901   30.4423 H   0  0  0  0  0  0  0  0  0  0  0  0
    9.0524   23.9388   31.0504 C   0  0  0  0  0  0  0  0  0  0  0  0
    9.8119   24.2113   30.3325 H   0  0  0  0  0  0  0  0  0  0  0  0
    8.5366   24.8972   31.9074 C   0  0  0  0  0  0  0  0  0  0  0  0
    8.8906   25.9165   31.8622 H   0  0  0  0  0  0  0  0  0  0  0  0
    7.5595   24.5341   32.8254 C   0  0  0  0  0  0  0  0  0  0  0  0
    6.9437   25.7624   33.8727 Cl  0  0  0  0  0  0  0  0  0  0  0  0
    7.6190   22.2760   32.0302 C   0  0  0  0  0  0  0  0  0  0  0  0
    7.2710   21.2542   32.0657 H   0  0  0  0  0  0  0  0  0  0  0  0
    7.0770   23.2192   32.9106 C   0  0  0  0  0  0  0  0  0  0  0  0
    6.0328   22.7215   33.8551 *   0  0  0  0  0  0  0  0  0  0  0  0
  1  2  1  0
  1  3  2  0
  1  9  1  0
  3  4  1  0
  3  5  1  0
  5  6  1  0
  5  7  2  0
  7  8  1  0
  7 11  1  0
  9 10  1  0
  9 11  2  0
 12 11  1  0
V   12 *
M  END
>  <kinase>  (17) 
MER

>  <family>  (17) 
Axl

>  <group>  (17) 
TK

>  <complex_pdb>  (17) 
7aw2

>  <ligand_pdb>  (17) 
S4W

>  <alt>  (17) 
 

>  <chain>  (17) 
A

>  <atom.prop.subpocket>  (17) 
B2 B2 B2 B2 B2 B2 B2 B2 B2 B2 B2 B1

>  <atom.prop.environment>  (17) 
16 16 16 16 16 16 16 16 16 16 16 na

$$$$
7ols_chainA
     RDKit          3D

 15 15  0  0  0  0  0  0  0  0999 V2000
    8.1886   23.9751   31.8543 N   0  0  0  0  0  0  0  0  0  0  0  0
    7.3719   22.0306   32.0508 C   0  0  0  0  0  0  0  0  0  0  0  0
    7.1540   20.9849   31.8916 H   0  0  0  0  0  0  0  0  0  0  0  0
    9.0319   25.0116   31.2756 C   0  0  0  0  0  0  0  0  0  0  0  0
    8.8788   25.9471   31.8137 H   0  0  0  0  0  0  0  0  0  0  0  0
    8.7705   25.1489   30.2263 H   0  0  0  0  0  0  0  0  0  0  0  0
   10.0778   24.7146   31.3535 H   0  0  0  0  0  0  0  0  0  0  0  0
    7.3307   24.0717   32.8895 C   0  0  0  0  0  0  0  0  0  0  0  0
    7.1081   25.3360   33.6456 C   0  0  0  0  0  0  0  0  0  0  0  0
    7.7273   26.1266   33.2218 H   0  0  0  0  0  0  0  0  0  0  0  0
    7.3760   25.1859   34.6915 H   0  0  0  0  0  0  0  0  0  0  0  0
    6.0581   25.6205   33.5768 H   0  0  0  0  0  0  0  0  0  0  0  0
    8.2271   22.7215   31.3266 N   0  0  0  0  0  0  0  0  0  0  0  0
    6.7778   22.8090   33.0509 C   0  0  0  0  0  0  0  0  0  0  0  0
    5.7661   22.3585   34.0363 *   0  0  0  0  0  0  0  0  0  0  0  0
  1  4  1  0
  1  8  1  0
  1 13  1  0
  2  3  1  0
  2 13  2  0
  2 14  1  0
  4  5  1  0
  4  6  1  0
  4  7  1  0
  8  9  1  0
  8 14  2  0
  9 10  1  0
  9 11  1  0
  9 12  1  0
 15 14  1  0
V   15 *
M  END
>  <kinase>  (18) 
MER

>  <family>  (18) 
Axl

>  <group>  (18) 
TK

>  <complex_pdb>  (18) 
7ols

>  <ligand_pdb>  (18) 
VJZ

>  <alt>  (18) 
 

>  <chain>  (18) 
A

>  <atom.prop.subpocket>  (18) 
B2 B2 B2 B2 B2 B2 B2 B2 B2 B2 B2 B2 B2 B2 B1

>  <atom.prop.environment>  (18) 
9 9 9 8 8 8 8 14 8 8 8 8 9 16 na

$$$$
7olv_chainA
     RDKit          3D

 16 16  0  0  0  0  0  0  0  0999 V2000
    7.9158   23.9217   31.4347 N   0  0  0  0  0  0  0  0  0  0  0  0
    7.0180   21.9963   31.6115 C   0  0  0  0  0  0  0  0  0  0  0  0
    6.6893   20.5830   31.2574 C   0  0  0  0  0  0  0  0  0  0  0  0
    7.1989   20.3122   30.3326 H   0  0  0  0  0  0  0  0  0  0  0  0
    5.6124   20.4835   31.1214 H   0  0  0  0  0  0  0  0  0  0  0  0
    7.0168   19.9218   32.0597 H   0  0  0  0  0  0  0  0  0  0  0  0
    8.7513   24.9514   30.8341 C   0  0  0  0  0  0  0  0  0  0  0  0
    8.6982   25.8589   31.4355 H   0  0  0  0  0  0  0  0  0  0  0  0
    8.3979   25.1632   29.8249 H   0  0  0  0  0  0  0  0  0  0  0  0
    9.7833   24.6032   30.7920 H   0  0  0  0  0  0  0  0  0  0  0  0
    7.1583   23.9929   32.5661 C   0  0  0  0  0  0  0  0  0  0  0  0
    7.0543   26.1394   33.9711 N   0  0  0  0  0  0  0  0  0  0  0  0
    7.0934   25.1756   33.3578 C   0  0  0  0  0  0  0  0  0  0  0  0
    7.8307   22.6980   30.8481 N   0  0  0  0  0  0  0  0  0  0  0  0
    6.5871   22.7762   32.7234 C   0  0  0  0  0  0  0  0  0  0  0  0
    5.6319   22.3397   33.7669 *   0  0  0  0  0  0  0  0  0  0  0  0
  1  7  1  0
  1 11  1  0
  1 14  1  0
  2  3  1  0
  2 14  2  0
  2 15  1  0
  3  4  1  0
  3  5  1  0
  3  6  1  0
  7  8  1  0
  7  9  1  0
  7 10  1  0
 11 13  1  0
 11 15  2  0
 12 13  3  0
 16 15  1  0
V   16 *
M  END
>  <kinase>  (19) 
MER

>  <family>  (19) 
Axl

>  <group>  (19) 
TK

>  <complex_pdb>  (19) 
7olv

>  <ligand_pdb>  (19) 
VK2

>  <alt>  (19) 
 

>  <chain>  (19) 
A

>  <atom.prop.subpocket>  (19) 
B2 B2 B2 B2 B2 B2 B2 B2 B2 B2 B2 B2 B2 B2 B2 B1

>  <atom.prop.environment>  (19) 
9 14 8 8 8 8 8 8 8 8 9 9 9 9 16 na

$$$$
7olx_chainA
     RDKit          3D

 18 18  0  0  0  0  0  0  0  0999 V2000
    8.0691   22.6728   31.0719 N   0  0  0  0  0  0  0  0  0  0  0  0
    6.8073   20.6248   31.4598 C   0  0  0  0  0  0  0  0  0  0  0  0
    7.3801   20.2978   30.5920 H   0  0  0  0  0  0  0  0  0  0  0  0
    5.7424   20.5705   31.2337 H   0  0  0  0  0  0  0  0  0  0  0  0
    7.0320   19.9783   32.3081 H   0  0  0  0  0  0  0  0  0  0  0  0
    7.2709   25.3161   33.4866 C   0  0  0  0  0  0  0  0  0  0  0  0
    7.9542   26.0583   33.0739 H   0  0  0  0  0  0  0  0  0  0  0  0
    7.5420   25.1085   34.5217 H   0  0  0  0  0  0  0  0  0  0  0  0
    6.2514   25.6997   33.4480 H   0  0  0  0  0  0  0  0  0  0  0  0
    7.3600   24.0613   32.6887 C   0  0  0  0  0  0  0  0  0  0  0  0
    8.1688   23.9031   31.6299 N   0  0  0  0  0  0  0  0  0  0  0  0
    9.0919   24.8670   31.0509 C   0  0  0  0  0  0  0  0  0  0  0  0
    9.5976   24.4176   30.1962 H   0  0  0  0  0  0  0  0  0  0  0  0
    9.8302   25.1574   31.7984 H   0  0  0  0  0  0  0  0  0  0  0  0
    8.5397   25.7481   30.7242 H   0  0  0  0  0  0  0  0  0  0  0  0
    7.1735   22.0325   31.7961 C   0  0  0  0  0  0  0  0  0  0  0  0
    6.6890   22.8704   32.8395 C   0  0  0  0  0  0  0  0  0  0  0  0
    5.6689   22.4225   33.8178 *   0  0  0  0  0  0  0  0  0  0  0  0
  1 11  1  0
  1 16  2  0
  2  3  1  0
  2  4  1  0
  2  5  1  0
  2 16  1  0
  6  7  1  0
  6  8  1  0
  6  9  1  0
  6 10  1  0
 10 11  1  0
 10 17  2  0
 11 12  1  0
 12 13  1  0
 12 14  1  0
 12 15  1  0
 16 17  1  0
 18 17  1  0
V   18 *
M  END
>  <kinase>  (20) 
MER

>  <family>  (20) 
Axl

>  <group>  (20) 
TK

>  <complex_pdb>  (20) 
7olx

>  <ligand_pdb>  (20) 
VK5

>  <alt>  (20) 
 

>  <chain>  (20) 
A

>  <atom.prop.subpocket>  (20) 
B2 B2 B2 B2 B2 B2 B2 B2 B2 B2 B2 B2 B2 B2 B2 B2 B2 B1

>  <atom.prop.environment>  (20) 
9 8 8 8 8 8 8 8 8 14 9 8 8 8 8 14 16 na

$$$$
7b35_chainB
     RDKit          3D

 18 18  0  0  0  0  0  0  0  0999 V2000
    6.8969   21.2637   36.8445 C   0  0  0  0  0  0  0  0  0  0  0  0
    7.0377   22.5218   36.2125 C   0  0  0  0  0  0  0  0  0  0  0  0
    6.1978   23.5124   36.6249 O   0  0  0  0  0  0  0  0  0  0  0  0
    6.3343   24.7842   35.9964 C   0  0  0  0  0  0  0  0  0  0  0  0
    5.6068   25.4778   36.4181 H   0  0  0  0  0  0  0  0  0  0  0  0
    6.1594   24.6810   34.9255 H   0  0  0  0  0  0  0  0  0  0  0  0
    7.3410   25.1667   36.1650 H   0  0  0  0  0  0  0  0  0  0  0  0
    8.0009   22.6652   35.2314 C   0  0  0  0  0  0  0  0  0  0  0  0
    8.1353   23.6126   34.7307 H   0  0  0  0  0  0  0  0  0  0  0  0
    8.7899   21.5794   34.9001 C   0  0  0  0  0  0  0  0  0  0  0  0
    9.5467   21.6710   34.1350 H   0  0  0  0  0  0  0  0  0  0  0  0
    8.6031   20.3680   35.5580 C   0  0  0  0  0  0  0  0  0  0  0  0
    9.4263   19.1596   35.2283 C   0  0  0  0  0  0  0  0  0  0  0  0
   10.1392   19.4090   34.4424 H   0  0  0  0  0  0  0  0  0  0  0  0
    8.7729   18.3575   34.8849 H   0  0  0  0  0  0  0  0  0  0  0  0
    9.9653   18.8334   36.1177 H   0  0  0  0  0  0  0  0  0  0  0  0
    7.6727   20.2220   36.5142 N   0  0  0  0  0  0  0  0  0  0  0  0
    5.8809   20.9857   37.8893 *   0  0  0  0  0  0  0  0  0  0  0  0
  1  2  2  0
  1 17  1  0
  2  3  1  0
  2  8  1  0
  3  4  1  0
  4  5  1  0
  4  6  1  0
  4  7  1  0
  8  9  1  0
  8 10  2  0
 10 11  1  0
 10 12  1  0
 12 13  1  0
 12 17  2  0
 13 14  1  0
 13 15  1  0
 13 16  1  0
 18  1  1  0
V   18 *
M  END
>  <kinase>  (21) 
MST3

>  <family>  (21) 
STE20

>  <group>  (21) 
STE

>  <complex_pdb>  (21) 
7b35

>  <ligand_pdb>  (21) 
SQB

>  <alt>  (21) 
 

>  <chain>  (21) 
B

>  <atom.prop.subpocket>  (21) 
B2 B2 B2 B2 B2 B2 B2 B2 B2 B2 B2 B2 B2 B2 B2 B2 B2 GA

>  <atom.prop.environment>  (21) 
14 16 3 3 3 3 3 16 16 16 16 14 8 8 8 8 16 na

$$$$
6e9w_chainB
     RDKit          3D

 18 19  0  0  0  0  0  0  0  0999 V2000
    7.8682   15.0001   38.9230 C   0  0  0  0  0  0  0  0  0  0  0  0
    8.1385   15.2395   39.9409 H   0  0  0  0  0  0  0  0  0  0  0  0
    8.8683   14.7354   37.9724 C   0  0  0  0  0  0  0  0  0  0  0  0
    9.9114   14.7749   38.2496 H   0  0  0  0  0  0  0  0  0  0  0  0
    8.4900   14.4163   36.6471 C   0  0  0  0  0  0  0  0  0  0  0  0
    7.1303   14.3745   36.2545 C   0  0  0  0  0  0  0  0  0  0  0  0
    7.7758   13.8419   34.0241 C   0  0  0  0  0  0  0  0  0  0  0  0
    7.4500   14.2115   33.0518 H   0  0  0  0  0  0  0  0  0  0  0  0
    7.9599   12.7694   33.9621 H   0  0  0  0  0  0  0  0  0  0  0  0
    6.1132   14.6675   37.1929 C   0  0  0  0  0  0  0  0  0  0  0  0
    6.7473   14.0719   34.9645 O   0  0  0  0  0  0  0  0  0  0  0  0
    9.1005   14.5534   34.4092 C   0  0  0  0  0  0  0  0  0  0  0  0
    8.9536   15.6328   34.3707 H   0  0  0  0  0  0  0  0  0  0  0  0
    9.8807   14.2676   33.7037 H   0  0  0  0  0  0  0  0  0  0  0  0
    9.4976   14.1790   35.7274 O   0  0  0  0  0  0  0  0  0  0  0  0
    6.5073   14.9525   38.5437 C   0  0  0  0  0  0  0  0  0  0  0  0
    5.7459   15.1347   39.2877 H   0  0  0  0  0  0  0  0  0  0  0  0
    4.6810   14.7558   36.6988 *   0  0  0  0  0  0  0  0  0  0  0  0
  1  2  1  0
  1  3  2  0
  1 16  1  0
  3  4  1  0
  3  5  1  0
  5  6  2  0
  5 15  1  0
  6 10  1  0
  6 11  1  0
  7  8  1  0
  7  9  1  0
  7 11  1  0
  7 12  1  0
 10 16  2  0
 12 13  1  0
 12 14  1  0
 12 15  1  0
 16 17  1  0
 18 10  1  0
V   18 *
M  END
>  <kinase>  (22) 
ROCK1

>  <family>  (22) 
DMPK

>  <group>  (22) 
AGC

>  <complex_pdb>  (22) 
6e9w

>  <ligand_pdb>  (22) 
J0P

>  <alt>  (22) 
 

>  <chain>  (22) 
B

>  <atom.prop.subpocket>  (22) 
B2 B2 B2 B2 B2 B2 B2 B2 B2 B2 B2 B2 B2 B2 B2 B2 B2 GA

>  <atom.prop.environment>  (22) 
16 16 16 16 16 16 16 16 16 16 16 16 16 16 16 16 16 na

$$$$
3tuc_chainA
     RDKit          3D

 15 15  0  0  0  0  0  0  0  0999 V2000
    6.7555   23.0005   34.2815 N   0  0  0  0  0  0  0  0  0  0  0  0
    6.0755   22.3351   35.2556 C   0  0  0  0  0  0  0  0  0  0  0  0
    8.2137   23.1887   34.3608 C   0  0  0  0  0  0  0  0  0  0  0  0
    8.6175   23.2418   33.3497 H   0  0  0  0  0  0  0  0  0  0  0  0
    8.6509   22.3373   34.8824 H   0  0  0  0  0  0  0  0  0  0  0  0
    6.0988   23.5245   33.1884 C   0  0  0  0  0  0  0  0  0  0  0  0
    6.6795   24.0234   32.4267 H   0  0  0  0  0  0  0  0  0  0  0  0
    4.6390   22.2227   35.1329 C   0  0  0  0  0  0  0  0  0  0  0  0
    6.6710   21.8264   36.2167 O   0  0  0  0  0  0  0  0  0  0  0  0
    4.7381   23.4391   33.0269 C   0  0  0  0  0  0  0  0  0  0  0  0
    4.2598   23.8623   32.1560 H   0  0  0  0  0  0  0  0  0  0  0  0
    3.9778   22.7890   34.0184 C   0  0  0  0  0  0  0  0  0  0  0  0
    2.9035   22.7238   33.9288 H   0  0  0  0  0  0  0  0  0  0  0  0
    3.8631   21.5477   36.1777 *   0  0  0  0  0  0  0  0  0  0  0  0
    8.5846   24.4722   35.1101 *   0  0  0  0  0  0  0  0  0  0  0  0
  1  2  1  0
  1  3  1  0
  1  6  1  0
  2  8  1  0
  2  9  2  0
  3  4  1  0
  3  5  1  0
  6  7  1  0
  6 10  2  0
  8 12  2  0
 10 11  1  0
 10 12  1  0
 12 13  1  0
  8 14  1  0
  3 15  1  0
V   14 *
V   15 *
M  END
>  <kinase>  (23) 
SYK

>  <family>  (23) 
Syk

>  <group>  (23) 
TK

>  <complex_pdb>  (23) 
3tuc

>  <ligand_pdb>  (23) 
FPW

>  <alt>  (23) 
 

>  <chain>  (23) 
A

>  <atom.prop.subpocket>  (23) 
B2 B2 B2 B2 B2 B2 B2 B2 B2 B2 B2 B2 B2 GA B1

>  <atom.prop.environment>  (23) 
9 16 8 8 8 16 16 16 16 16 16 16 16 na na

$$$$
1a9u_chainA
     RDKit          3D

 17 17  0  0  0  0  0  0  0  0999 V2000
    7.0984   12.4935   37.1172 O   0  0  0  0  0  0  0  0  0  0  0  0
    8.7400   14.3370   35.6775 C   0  0  0  0  0  0  0  0  0  0  0  0
    9.1756   13.4969   35.1366 H   0  0  0  0  0  0  0  0  0  0  0  0
    9.5054   15.0933   35.8515 H   0  0  0  0  0  0  0  0  0  0  0  0
    7.9307   14.7681   35.0882 H   0  0  0  0  0  0  0  0  0  0  0  0
    8.0830   13.7546   37.2810 S   0  0  0  0  0  4  0  0  0  0  0  0
    5.7365   15.9805   39.7480 C   0  0  0  0  0  0  0  0  0  0  0  0
    4.9178   15.8090   40.4311 H   0  0  0  0  0  0  0  0  0  0  0  0
    6.3080   14.8842   39.0606 C   0  0  0  0  0  0  0  0  0  0  0  0
    5.9358   13.8833   39.2221 H   0  0  0  0  0  0  0  0  0  0  0  0
    7.3784   15.1167   38.1545 C   0  0  0  0  0  0  0  0  0  0  0  0
    7.8998   16.4183   37.9288 C   0  0  0  0  0  0  0  0  0  0  0  0
    8.7187   16.5710   37.2415 H   0  0  0  0  0  0  0  0  0  0  0  0
    7.3290   17.5071   38.6184 C   0  0  0  0  0  0  0  0  0  0  0  0
    7.7189   18.4998   38.4481 H   0  0  0  0  0  0  0  0  0  0  0  0
    6.2289   17.3294   39.5529 C   0  0  0  0  0  0  0  0  0  0  0  0
    5.6405   18.4536   40.2272 *   0  0  0  0  0  0  0  0  0  0  0  0
  1  6  2  0
  2  3  1  0
  2  4  1  0
  2  5  1  0
  6  2  1  6
  6 11  1  0
  7  8  1  0
  7  9  2  0
  7 16  1  0
  9 10  1  0
  9 11  1  0
 11 12  2  0
 12 13  1  0
 12 14  1  0
 14 15  1  0
 14 16  2  0
 16 17  1  0
V   17 *
M  END
>  <kinase>  (24) 
p38a

>  <family>  (24) 
MAPK

>  <group>  (24) 
CMGC

>  <complex_pdb>  (24) 
1a9u

>  <ligand_pdb>  (24) 
SB2

>  <alt>  (24) 
 

>  <chain>  (24) 
A

>  <atom.prop.subpocket>  (24) 
B2 B2 B2 B2 B2 B2 B2 B2 B2 B2 B2 B2 B2 B2 B2 B2 GA

>  <atom.prop.environment>  (24) 
16 16 16 16 16 16 16 16 16 16 16 16 16 16 16 16 na

$$$$
3mvm_chainB
     RDKit          3D

 10 10  0  0  0  0  0  0  0  0999 V2000
    5.2600   21.4380   35.2680 N   0  0  0  0  0  0  0  0  0  0  0  0
    6.2111   21.3176   35.5856 H   0  0  0  0  0  0  0  0  0  0  0  0
    5.0412   21.6958   33.9567 C   0  0  0  0  0  0  0  0  0  0  0  0
    4.1455   22.5288   33.4208 N   0  0  0  0  0  0  0  0  0  0  0  0
    4.3045   22.4490   32.0248 O   0  0  0  0  0  0  0  0  0  0  0  0
    5.2960   21.5654   31.7405 C   0  0  0  0  0  0  0  0  0  0  0  0
    5.6348   21.3043   30.7488 H   0  0  0  0  0  0  0  0  0  0  0  0
    5.7726   21.0837   32.8490 C   0  0  0  0  0  0  0  0  0  0  0  0
    6.5686   20.3590   32.9366 H   0  0  0  0  0  0  0  0  0  0  0  0
    4.2593   21.3352   36.1680 *   0  0  0  0  0  0  0  0  0  0  0  0
  1  2  1  0
  1  3  1  0
  3  4  2  0
  3  8  1  0
  4  5  1  0
  5  6  1  0
  6  7  1  0
  6  8  2  0
  8  9  1  0
 10  1  1  0
V   10 *
M  END
>  <kinase>  (25) 
p38a

>  <family>  (25) 
MAPK

>  <group>  (25) 
CMGC

>  <complex_pdb>  (25) 
3mvm

>  <ligand_pdb>  (25) 
39P

>  <alt>  (25) 
 

>  <chain>  (25) 
B

>  <atom.prop.subpocket>  (25) 
B2 B2 B2 B2 B2 B2 B2 B2 B2 GA

>  <atom.prop.environment>  (25) 
5 5 14 14 14 14 14 14 14 na

$$$$
5eko_chainA
     RDKit          3D

 22 23  0  0  0  0  0  0  0  0999 V2000
    4.5255   20.7377   35.0610 C   0  0  0  0  0  0  0  0  0  0  0  0
    4.0991   21.8457   34.3470 C   0  0  0  0  0  0  0  0  0  0  0  0
    3.3102   22.4726   34.7356 H   0  0  0  0  0  0  0  0  0  0  0  0
    4.6924   22.1438   33.1303 C   0  0  0  0  0  0  0  0  0  0  0  0
    4.3672   23.0067   32.5681 H   0  0  0  0  0  0  0  0  0  0  0  0
    5.7040   21.3340   32.6344 C   0  0  0  0  0  0  0  0  0  0  0  0
    6.1489   21.5834   31.6824 H   0  0  0  0  0  0  0  0  0  0  0  0
    5.5479   19.9479   34.5468 C   0  0  0  0  0  0  0  0  0  0  0  0
    5.8787   19.0942   35.1198 H   0  0  0  0  0  0  0  0  0  0  0  0
    6.1684   20.2109   33.3174 C   0  0  0  0  0  0  0  0  0  0  0  0
    7.1459   19.4317   32.8449 N   0  0  0  0  0  0  0  0  0  0  0  0
    7.5537   18.3686   33.5286 C   0  0  0  0  0  0  0  0  0  0  0  0
    7.2112   17.9898   34.4802 H   0  0  0  0  0  0  0  0  0  0  0  0
    7.7731   19.6556   31.6841 C   0  0  0  0  0  0  0  0  0  0  0  0
    7.6022   20.4621   30.9864 H   0  0  0  0  0  0  0  0  0  0  0  0
    8.6734   18.6421   31.5782 N   0  0  0  0  0  0  0  0  0  0  0  0
    8.5357   17.8804   32.6893 C   0  0  0  0  0  0  0  0  0  0  0  0
    9.2105   16.6383   33.2009 C   0  0  0  0  0  0  0  0  0  0  0  0
    8.7776   16.3590   34.1614 H   0  0  0  0  0  0  0  0  0  0  0  0
   10.2766   16.8287   33.3245 H   0  0  0  0  0  0  0  0  0  0  0  0
    9.0668   15.8267   32.4876 H   0  0  0  0  0  0  0  0  0  0  0  0
    3.8824   20.4177   36.3825 *   0  0  0  0  0  0  0  0  0  0  0  0
  1  2  2  0
  1  8  1  0
  2  3  1  0
  2  4  1  0
  4  5  1  0
  4  6  2  0
  6  7  1  0
  6 10  1  0
  8  9  1  0
  8 10  2  0
 10 11  1  0
 11 12  1  0
 11 14  1  0
 12 13  1  0
 12 17  2  0
 14 15  1  0
 14 16  2  0
 16 17  1  0
 17 18  1  0
 18 19  1  0
 18 20  1  0
 18 21  1  0
 22  1  1  0
V   22 *
M  END
>  <kinase>  (26) 
p38d

>  <family>  (26) 
MAPK

>  <group>  (26) 
CMGC

>  <complex_pdb>  (26) 
5eko

>  <ligand_pdb>  (26) 
N17

>  <alt>  (26) 
 

>  <chain>  (26) 
A

>  <atom.prop.subpocket>  (26) 
B2 B2 B2 B2 B2 B2 B2 B2 B2 B2 B2 B2 B2 B2 B2 B2 B2 B2 B2 B2 B2 GA

>  <atom.prop.environment>  (26) 
16 16 16 16 16 16 16 16 16 16 9 14 14 14 14 14 14 8 8 8 8 na

$$$$
