3m11_chainA
     RDKit          3D

 18 18  0  0  0  0  0  0  0  0999 V2000
    4.8309   18.5525   35.3540 N   0  0  0  0  0  0  0  0  0  0  0  0
    4.6742   19.3344   34.7342 H   0  0  0  0  0  0  0  0  0  0  0  0
    5.8624   17.7387   35.1491 C   0  0  0  0  0  0  0  0  0  0  0  0
    6.6436   18.0162   34.1093 N   0  0  0  0  0  0  0  0  0  0  0  0
    6.4384   18.8115   33.5215 H   0  0  0  0  0  0  0  0  0  0  0  0
    7.6948   17.2466   33.8432 C   0  0  0  0  0  0  0  0  0  0  0  0
    8.1236   17.0865   32.5301 C   0  0  0  0  0  0  0  0  0  0  0  0
    7.6029   17.5869   31.7270 H   0  0  0  0  0  0  0  0  0  0  0  0
    9.2227   16.2821   32.2514 C   0  0  0  0  0  0  0  0  0  0  0  0
    9.5567   16.1584   31.2318 H   0  0  0  0  0  0  0  0  0  0  0  0
    9.8918   15.6368   33.2853 C   0  0  0  0  0  0  0  0  0  0  0  0
   10.7450   15.0112   33.0686 H   0  0  0  0  0  0  0  0  0  0  0  0
    9.4629   15.7968   34.5975 C   0  0  0  0  0  0  0  0  0  0  0  0
    9.9826   15.2955   35.4006 H   0  0  0  0  0  0  0  0  0  0  0  0
    8.3649   16.6020   34.8758 C   0  0  0  0  0  0  0  0  0  0  0  0
    8.0321   16.7268   35.8956 H   0  0  0  0  0  0  0  0  0  0  0  0
    6.0824   16.7772   35.8841 O   0  0  0  0  0  0  0  0  0  0  0  0
    4.0049   18.3376   36.3749 *   0  0  0  0  0  0  0  0  0  0  0  0
  1  2  1  0
  1  3  1  0
  3  4  1  0
  3 17  2  0
  4  5  1  0
  4  6  1  0
  6  7  2  0
  6 15  1  0
  7  8  1  0
  7  9  1  0
  9 10  1  0
  9 11  2  0
 11 12  1  0
 11 13  1  0
 13 14  1  0
 13 15  2  0
 15 16  1  0
  1 18  1  0
V   18 *
M  END
>  <kinase>  (1) 
AurA

>  <family>  (1) 
Aur

>  <group>  (1) 
Other

>  <complex_pdb>  (1) 
3m11

>  <ligand_pdb>  (1) 
AKI

>  <alt>  (1) 
 

>  <chain>  (1) 
A

>  <atom.prop.subpocket>  (1) 
B2 B2 B2 B2 B2 B2 B2 B2 B2 B2 B2 B2 B2 B2 B2 B2 B2 GA

>  <atom.prop.environment>  (1) 
5 5 1 5 5 16 16 16 16 16 16 16 16 16 16 16 1 na

$$$$
5fbo_altA_chainA
     RDKit          3D

 14 14  0  0  0  0  0  0  0  0999 V2000
    5.3862   20.3823   36.2602 C   0  0  0  0  0  0  0  0  0  0  0  0
    4.6536   20.4534   35.1352 N   0  0  0  0  0  0  0  0  0  0  0  0
    5.3068   20.6958   33.9882 C   0  0  0  0  0  0  0  0  0  0  0  0
    4.7348   20.7466   33.0735 H   0  0  0  0  0  0  0  0  0  0  0  0
    6.6681   20.8830   33.9181 C   0  0  0  0  0  0  0  0  0  0  0  0
    7.1399   21.0948   32.9699 H   0  0  0  0  0  0  0  0  0  0  0  0
    7.4301   20.7978   35.0738 C   0  0  0  0  0  0  0  0  0  0  0  0
    6.7786   20.5461   36.2795 C   0  0  0  0  0  0  0  0  0  0  0  0
    7.3316   20.4789   37.2047 H   0  0  0  0  0  0  0  0  0  0  0  0
    8.9139   20.9989   35.0450 C   0  0  0  0  0  0  0  0  0  0  0  0
    9.4279   21.4166   36.2080 F   0  0  0  0  0  0  0  0  0  0  0  0
    9.5773   19.8877   34.7335 F   0  0  0  0  0  0  0  0  0  0  0  0
    9.2904   21.9425   34.1929 F   0  0  0  0  0  0  0  0  0  0  0  0
    4.5875   20.1204   37.3848 *   0  0  0  0  0  0  0  0  0  0  0  0
  1  2  2  0
  1  8  1  0
  2  3  1  0
  3  4  1  0
  3  5  2  0
  5  6  1  0
  5  7  1  0
  7  8  2  0
  7 10  1  0
  8  9  1  0
 10 11  1  0
 10 12  1  0
 10 13  1  0
  1 14  1  0
V   14 *
M  END
>  <kinase>  (2) 
BTK

>  <family>  (2) 
Tec

>  <group>  (2) 
TK

>  <complex_pdb>  (2) 
5fbo

>  <ligand_pdb>  (2) 
5WH

>  <alt>  (2) 
A

>  <chain>  (2) 
A

>  <atom.prop.subpocket>  (2) 
B2 B2 B2 B2 B2 B2 B2 B2 B2 B2 B2 B2 B2 GA

>  <atom.prop.environment>  (2) 
16 16 16 16 16 16 16 16 16 8 8 8 8 na

$$$$
3w2o_altB_chainA
     RDKit          3D

 15 15  0  0  0  0  0  0  0  0999 V2000
    6.6079   22.0083   37.3160 C   0  0  0  0  0  0  0  0  0  0  0  0
    6.0781   22.9251   37.5286 H   0  0  0  0  0  0  0  0  0  0  0  0
    7.9743   19.6271   36.7493 C   0  0  0  0  0  0  0  0  0  0  0  0
    7.5289   19.9011   38.0462 C   0  0  0  0  0  0  0  0  0  0  0  0
    7.7203   19.1887   38.8350 H   0  0  0  0  0  0  0  0  0  0  0  0
    8.7186   18.3358   36.4636 C   0  0  0  0  0  0  0  0  0  0  0  0
    8.2218   17.3250   37.1775 F   0  0  0  0  0  0  0  0  0  0  0  0
    8.6549   18.0388   35.1681 F   0  0  0  0  0  0  0  0  0  0  0  0
    9.9912   18.4934   36.7935 F   0  0  0  0  0  0  0  0  0  0  0  0
    7.7412   20.5669   35.7388 C   0  0  0  0  0  0  0  0  0  0  0  0
    8.0913   20.3740   34.7355 H   0  0  0  0  0  0  0  0  0  0  0  0
    7.0591   21.7522   36.0196 C   0  0  0  0  0  0  0  0  0  0  0  0
    6.8803   22.4712   35.2338 H   0  0  0  0  0  0  0  0  0  0  0  0
    6.8379   21.0858   38.3394 C   0  0  0  0  0  0  0  0  0  0  0  0
    6.4030   21.3490   39.6308 *   0  0  0  0  0  0  0  0  0  0  0  0
  1  2  1  0
  1 12  2  0
  1 14  1  0
  3  4  1  0
  3  6  1  0
  3 10  2  0
  4  5  1  0
  4 14  2  0
  6  7  1  0
  6  8  1  0
  6  9  1  0
 10 11  1  0
 10 12  1  0
 12 13  1  0
 14 15  1  0
V   15 *
M  END
>  <kinase>  (3) 
EGFR

>  <family>  (3) 
EGFR

>  <group>  (3) 
TK

>  <complex_pdb>  (3) 
3w2o

>  <ligand_pdb>  (3) 
03P

>  <alt>  (3) 
B

>  <chain>  (3) 
A

>  <atom.prop.subpocket>  (3) 
B2 B2 B2 B2 B2 B2 B2 B2 B2 B2 B2 B2 B2 B2 GA

>  <atom.prop.environment>  (3) 
16 16 16 16 16 8 8 8 8 16 16 16 16 16 na

$$$$
2c0i_altB_chainB
     RDKit          3D

 19 20  0  0  0  0  0  0  0  0999 V2000
    4.7466   21.0225   35.6350 C   0  0  0  0  0  0  0  0  0  0  0  0
    4.7047   22.0249   34.7156 N   0  0  0  0  0  0  0  0  0  0  0  0
    5.9600   20.3449   35.5459 C   0  0  0  0  0  0  0  0  0  0  0  0
    6.3042   19.4996   36.1232 H   0  0  0  0  0  0  0  0  0  0  0  0
    5.8596   22.0684   34.0018 C   0  0  0  0  0  0  0  0  0  0  0  0
    3.5699   22.9613   34.5151 C   0  0  0  0  0  0  0  0  0  0  0  0
    2.7678   22.7142   35.2106 H   0  0  0  0  0  0  0  0  0  0  0  0
    3.2036   22.8745   33.4922 H   0  0  0  0  0  0  0  0  0  0  0  0
    3.9054   23.9826   34.6954 H   0  0  0  0  0  0  0  0  0  0  0  0
    6.6368   21.0469   34.4999 C   0  0  0  0  0  0  0  0  0  0  0  0
    6.3401   22.8747   32.9565 C   0  0  0  0  0  0  0  0  0  0  0  0
    5.7232   23.6711   32.5671 H   0  0  0  0  0  0  0  0  0  0  0  0
    7.9142   20.8124   33.9639 C   0  0  0  0  0  0  0  0  0  0  0  0
    8.5227   20.0092   34.3527 H   0  0  0  0  0  0  0  0  0  0  0  0
    7.6110   22.6541   32.4165 C   0  0  0  0  0  0  0  0  0  0  0  0
    7.9788   23.2769   31.6145 H   0  0  0  0  0  0  0  0  0  0  0  0
    8.4003   21.6186   32.9257 C   0  0  0  0  0  0  0  0  0  0  0  0
    9.3848   21.4400   32.5190 H   0  0  0  0  0  0  0  0  0  0  0  0
    3.6688   20.6445   36.5961 *   0  0  0  0  0  0  0  0  0  0  0  0
  1  2  1  0
  1  3  2  0
  2  5  1  0
  2  6  1  0
  3  4  1  0
  3 10  1  0
  5 10  2  0
  5 11  1  0
  6  7  1  0
  6  8  1  0
  6  9  1  0
 10 13  1  0
 11 12  1  0
 11 15  2  0
 13 14  1  0
 13 17  2  0
 15 16  1  0
 15 17  1  0
 17 18  1  0
  1 19  1  0
V   19 *
M  END
>  <kinase>  (4) 
HCK

>  <family>  (4) 
Src

>  <group>  (4) 
TK

>  <complex_pdb>  (4) 
2c0i

>  <ligand_pdb>  (4) 
L1G

>  <alt>  (4) 
B

>  <chain>  (4) 
B

>  <atom.prop.subpocket>  (4) 
B2 B2 B2 B2 B2 B2 B2 B2 B2 B2 B2 B2 B2 B2 B2 B2 B2 B2 GA

>  <atom.prop.environment>  (4) 
9 9 9 9 9 8 8 8 8 9 9 9 9 9 9 9 9 9 na

$$$$
1a9u_chainA
     RDKit          3D

 17 17  0  0  0  0  0  0  0  0999 V2000
    7.0984   12.4935   37.1172 O   0  0  0  0  0  0  0  0  0  0  0  0
    8.7400   14.3370   35.6775 C   0  0  0  0  0  0  0  0  0  0  0  0
    9.1756   13.4969   35.1366 H   0  0  0  0  0  0  0  0  0  0  0  0
    9.5054   15.0933   35.8515 H   0  0  0  0  0  0  0  0  0  0  0  0
    7.9307   14.7681   35.0882 H   0  0  0  0  0  0  0  0  0  0  0  0
    8.0830   13.7546   37.2810 S   0  0  0  0  0  0  0  0  0  0  0  0
    5.7365   15.9805   39.7480 C   0  0  0  0  0  0  0  0  0  0  0  0
    4.9178   15.8090   40.4311 H   0  0  0  0  0  0  0  0  0  0  0  0
    6.3080   14.8842   39.0606 C   0  0  0  0  0  0  0  0  0  0  0  0
    5.9358   13.8833   39.2221 H   0  0  0  0  0  0  0  0  0  0  0  0
    7.3784   15.1167   38.1545 C   0  0  0  0  0  0  0  0  0  0  0  0
    7.8998   16.4183   37.9288 C   0  0  0  0  0  0  0  0  0  0  0  0
    8.7187   16.5710   37.2415 H   0  0  0  0  0  0  0  0  0  0  0  0
    7.3290   17.5071   38.6184 C   0  0  0  0  0  0  0  0  0  0  0  0
    7.7189   18.4998   38.4481 H   0  0  0  0  0  0  0  0  0  0  0  0
    6.2289   17.3294   39.5529 C   0  0  0  0  0  0  0  0  0  0  0  0
    5.6405   18.4536   40.2272 *   0  0  0  0  0  0  0  0  0  0  0  0
  1  6  2  0
  2  3  1  0
  2  4  1  0
  2  5  1  0
  6  2  1  6
  6 11  1  0
  7  8  1  0
  7  9  2  0
  7 16  1  0
  9 10  1  0
  9 11  1  0
 11 12  2  0
 12 13  1  0
 12 14  1  0
 14 15  1  0
 14 16  2  0
 16 17  1  0
V   17 *
M  END
>  <kinase>  (5) 
p38a

>  <family>  (5) 
MAPK

>  <group>  (5) 
CMGC

>  <complex_pdb>  (5) 
1a9u

>  <ligand_pdb>  (5) 
SB2

>  <alt>  (5) 
 

>  <chain>  (5) 
A

>  <atom.prop.subpocket>  (5) 
B2 B2 B2 B2 B2 B2 B2 B2 B2 B2 B2 B2 B2 B2 B2 B2 GA

>  <atom.prop.environment>  (5) 
16 16 16 16 16 16 16 16 16 16 16 16 16 16 16 16 na

$$$$
