5dls_chainA
     RDKit          3D

 15 15  0  0  0  0  0  0  0  0999 V2000
    4.5680   15.6439   36.6283 C   0  0  0  0  0  0  0  0  0  0  0  0
    4.4347   15.4282   35.5682 H   0  0  0  0  0  0  0  0  0  0  0  0
    3.9178   14.9954   37.2156 H   0  0  0  0  0  0  0  0  0  0  0  0
    6.0219   15.4053   37.0218 C   0  0  0  0  0  0  0  0  0  0  0  0
    6.3666   15.3581   38.3931 C   0  0  0  0  0  0  0  0  0  0  0  0
    5.5975   15.4767   39.1420 H   0  0  0  0  0  0  0  0  0  0  0  0
    7.7022   15.1581   38.7910 C   0  0  0  0  0  0  0  0  0  0  0  0
    7.9672   15.1210   39.8374 H   0  0  0  0  0  0  0  0  0  0  0  0
    8.6801   15.0081   37.7980 C   0  0  0  0  0  0  0  0  0  0  0  0
    9.7102   14.8612   38.0875 H   0  0  0  0  0  0  0  0  0  0  0  0
    8.3454   15.0454   36.4275 C   0  0  0  0  0  0  0  0  0  0  0  0
    9.1150   14.9185   35.6806 H   0  0  0  0  0  0  0  0  0  0  0  0
    7.0132   15.2473   36.0343 C   0  0  0  0  0  0  0  0  0  0  0  0
    6.7516   15.2811   34.9870 H   0  0  0  0  0  0  0  0  0  0  0  0
    4.2339   17.0492   36.8927 *   0  0  0  0  0  0  0  0  0  0  0  0
  1  2  1  0
  1  3  1  0
  1  4  1  0
  4  5  2  0
  4 13  1  0
  5  6  1  0
  5  7  1  0
  7  8  1  0
  7  9  2  0
  9 10  1  0
  9 11  1  0
 11 12  1  0
 11 13  2  0
 13 14  1  0
  1 15  1  0
V   15 *
M  END
>  <kinase>  (1) 
CHK1

>  <family>  (1) 
CAMKL

>  <group>  (1) 
CAMK

>  <complex_pdb>  (1) 
5dls

>  <ligand_pdb>  (1) 
5CV

>  <alt>  (1) 
 

>  <chain>  (1) 
A

>  <atom.prop.subpocket>  (1) 
B2 B2 B2 B2 B2 B2 B2 B2 B2 B2 B2 B2 B2 B2 GA

>  <atom.prop.environment>  (1) 
8 8 8 16 16 16 16 16 16 16 16 16 16 16 na

$$$$
6ge0_altA_chainA
     RDKit          3D

 29 29  0  0  0  0  0  0  0  0999 V2000
    8.3309   13.0632   32.7455 C   0  0  0  0  0  0  0  0  0  0  0  0
    8.3514   12.0335   32.3885 H   0  0  0  0  0  0  0  0  0  0  0  0
    7.6928   13.6608   32.0944 H   0  0  0  0  0  0  0  0  0  0  0  0
    7.9376   13.0877   33.7617 H   0  0  0  0  0  0  0  0  0  0  0  0
    9.8423   14.8928   33.1525 C   0  0  0  0  0  0  0  0  0  0  0  0
   11.4101   16.6369   33.6425 C   0  0  0  0  0  0  0  0  0  0  0  0
   12.4304   16.9821   33.7207 H   0  0  0  0  0  0  0  0  0  0  0  0
   10.3639   17.4859   33.9590 C   0  0  0  0  0  0  0  0  0  0  0  0
   10.5743   18.5030   34.2551 H   0  0  0  0  0  0  0  0  0  0  0  0
    9.0457   17.0473   33.9009 C   0  0  0  0  0  0  0  0  0  0  0  0
    8.7974   15.7425   33.4843 C   0  0  0  0  0  0  0  0  0  0  0  0
    7.7794   15.3877   33.4186 H   0  0  0  0  0  0  0  0  0  0  0  0
    7.5199   18.8512   33.0426 C   0  0  0  0  0  0  0  0  0  0  0  0
    8.3993   19.3790   32.6737 H   0  0  0  0  0  0  0  0  0  0  0  0
    6.7601   19.5743   33.3393 H   0  0  0  0  0  0  0  0  0  0  0  0
    7.1237   18.2105   32.2548 H   0  0  0  0  0  0  0  0  0  0  0  0
    6.0561   17.6215   35.8359 C   0  0  0  0  0  0  0  0  0  0  0  0
    4.7515   16.8796   36.0363 C   0  0  0  0  0  0  0  0  0  0  0  0
    4.9324   15.8129   35.9040 H   0  0  0  0  0  0  0  0  0  0  0  0
    4.0365   17.2223   35.2884 H   0  0  0  0  0  0  0  0  0  0  0  0
    9.6576   13.5981   32.7346 O   0  0  0  0  0  0  0  0  0  0  0  0
   11.1458   15.3492   33.2272 C   0  0  0  0  0  0  0  0  0  0  0  0
   11.9609   14.6934   32.9589 H   0  0  0  0  0  0  0  0  0  0  0  0
    7.9070   17.9970   34.2465 C   0  0  1  0  0  0  0  0  0  0  0  0
    8.2784   18.6364   35.0473 H   0  0  0  0  0  0  0  0  0  0  0  0
    6.7245   17.2955   34.7321 N   0  0  0  0  0  0  0  0  0  0  0  0
    6.3899   16.5089   34.1943 H   0  0  0  0  0  0  0  0  0  0  0  0
    6.4447   18.4575   36.6444 O   0  0  0  0  0  0  0  0  0  0  0  0
    4.1849   17.0951   37.3539 *   0  0  0  0  0  0  0  0  0  0  0  0
  1  2  1  0
  1  3  1  0
  1  4  1  0
  1 21  1  0
  5 11  2  0
  5 21  1  0
  5 22  1  0
  6  7  1  0
  6  8  1  0
  6 22  2  0
  8  9  1  0
  8 10  2  0
 10 11  1  0
 10 24  1  0
 11 12  1  0
 13 14  1  0
 13 15  1  0
 13 16  1  0
 13 24  1  0
 17 18  1  0
 17 26  1  0
 17 28  2  0
 18 19  1  0
 18 20  1  0
 22 23  1  0
 24 25  1  1
 24 26  1  0
 26 27  1  0
 18 29  1  0
V   29 *
M  END
>  <kinase>  (2) 
Erk2

>  <family>  (2) 
MAPK

>  <group>  (2) 
CMGC

>  <complex_pdb>  (2) 
6ge0

>  <ligand_pdb>  (2) 
EVQ

>  <alt>  (2) 
A

>  <chain>  (2) 
A

>  <atom.prop.subpocket>  (2) 
B2 B2 B2 B2 B2 B2 B2 B2 B2 B2 B2 B2 B2 B2 B2 B2 B2 B2 B2 B2 B2 B2 B2 B2 B2 B2 B2 B2 GA

>  <atom.prop.environment>  (2) 
3 3 3 3 16 16 16 16 16 16 16 16 8 8 8 8 8 8 8 8 3 16 16 8 8 5 5 8 na

$$$$
6g9m_altB_chainA
     RDKit          3D

 18 17  0  0  0  0  0  0  0  0999 V2000
    8.2234   14.4217   34.6362 C   0  0  0  0  0  0  0  0  0  0  0  0
    8.1563   14.7460   33.5977 H   0  0  0  0  0  0  0  0  0  0  0  0
    7.5454   13.5841   34.7998 H   0  0  0  0  0  0  0  0  0  0  0  0
    9.2449   14.1103   34.8543 H   0  0  0  0  0  0  0  0  0  0  0  0
    7.8353   15.5795   35.5580 C   0  0  0  0  0  0  0  0  0  0  0  0
    8.6159   16.8332   35.1503 C   0  0  0  0  0  0  0  0  0  0  0  0
    8.4944   17.0050   34.0808 H   0  0  0  0  0  0  0  0  0  0  0  0
    9.6726   16.6934   35.3781 H   0  0  0  0  0  0  0  0  0  0  0  0
    8.2360   17.6932   35.7019 H   0  0  0  0  0  0  0  0  0  0  0  0
    6.4003   15.8638   35.3582 N   0  0  0  0  0  0  0  0  0  0  0  0
    5.9149   15.3582   34.6309 H   0  0  0  0  0  0  0  0  0  0  0  0
    5.6967   16.7547   36.0844 C   0  0  0  0  0  0  0  0  0  0  0  0
    4.1854   16.6077   36.0320 C   0  0  0  0  0  0  0  0  0  0  0  0
    3.9340   15.6135   35.6626 H   0  0  0  0  0  0  0  0  0  0  0  0
    3.7746   17.3600   35.3587 H   0  0  0  0  0  0  0  0  0  0  0  0
    6.2147   17.6441   36.7595 O   0  0  0  0  0  0  0  0  0  0  0  0
    3.6137   16.7853   37.3528 *   0  0  0  0  0  0  0  0  0  0  0  0
    7.9072   15.1894   37.0817 *   0  0  0  0  0  0  0  0  0  0  0  0
  1  2  1  0
  1  3  1  0
  1  4  1  0
  1  5  1  0
  5  6  1  0
  5 10  1  0
  6  7  1  0
  6  8  1  0
  6  9  1  0
 10 11  1  0
 10 12  1  0
 12 13  1  0
 12 16  2  0
 13 14  1  0
 13 15  1  0
 13 17  1  0
  5 18  1  0
V   17 *
V   18 *
M  END
>  <kinase>  (3) 
Erk2

>  <family>  (3) 
MAPK

>  <group>  (3) 
CMGC

>  <complex_pdb>  (3) 
6g9m

>  <ligand_pdb>  (3) 
ESW

>  <alt>  (3) 
B

>  <chain>  (3) 
A

>  <atom.prop.subpocket>  (3) 
B2 B2 B2 B2 B2 B2 B2 B2 B2 B2 B2 B2 B2 B2 B2 B2 GA GA

>  <atom.prop.environment>  (3) 
8 8 8 8 8 8 8 8 8 5 5 8 8 8 8 8 na na

$$$$
3m11_chainA
     RDKit          3D

 18 18  0  0  0  0  0  0  0  0999 V2000
    4.8309   18.5525   35.3540 N   0  0  0  0  0  0  0  0  0  0  0  0
    4.6742   19.3344   34.7342 H   0  0  0  0  0  0  0  0  0  0  0  0
    5.8624   17.7387   35.1491 C   0  0  0  0  0  0  0  0  0  0  0  0
    6.6436   18.0162   34.1093 N   0  0  0  0  0  0  0  0  0  0  0  0
    6.4384   18.8115   33.5215 H   0  0  0  0  0  0  0  0  0  0  0  0
    7.6948   17.2466   33.8432 C   0  0  0  0  0  0  0  0  0  0  0  0
    8.1236   17.0865   32.5301 C   0  0  0  0  0  0  0  0  0  0  0  0
    7.6029   17.5869   31.7270 H   0  0  0  0  0  0  0  0  0  0  0  0
    9.2227   16.2821   32.2514 C   0  0  0  0  0  0  0  0  0  0  0  0
    9.5567   16.1584   31.2318 H   0  0  0  0  0  0  0  0  0  0  0  0
    9.8918   15.6368   33.2853 C   0  0  0  0  0  0  0  0  0  0  0  0
   10.7450   15.0112   33.0686 H   0  0  0  0  0  0  0  0  0  0  0  0
    9.4629   15.7968   34.5975 C   0  0  0  0  0  0  0  0  0  0  0  0
    9.9826   15.2955   35.4006 H   0  0  0  0  0  0  0  0  0  0  0  0
    8.3649   16.6020   34.8758 C   0  0  0  0  0  0  0  0  0  0  0  0
    8.0321   16.7268   35.8956 H   0  0  0  0  0  0  0  0  0  0  0  0
    6.0824   16.7772   35.8841 O   0  0  0  0  0  0  0  0  0  0  0  0
    4.0049   18.3376   36.3749 *   0  0  0  0  0  0  0  0  0  0  0  0
  1  2  1  0
  1  3  1  0
  3  4  1  0
  3 17  2  0
  4  5  1  0
  4  6  1  0
  6  7  2  0
  6 15  1  0
  7  8  1  0
  7  9  1  0
  9 10  1  0
  9 11  2  0
 11 12  1  0
 11 13  1  0
 13 14  1  0
 13 15  2  0
 15 16  1  0
  1 18  1  0
V   18 *
M  END
>  <kinase>  (4) 
AurA

>  <family>  (4) 
Aur

>  <group>  (4) 
Other

>  <complex_pdb>  (4) 
3m11

>  <ligand_pdb>  (4) 
AKI

>  <alt>  (4) 
 

>  <chain>  (4) 
A

>  <atom.prop.subpocket>  (4) 
B2 B2 B2 B2 B2 B2 B2 B2 B2 B2 B2 B2 B2 B2 B2 B2 B2 GA

>  <atom.prop.environment>  (4) 
5 5 1 5 5 16 16 16 16 16 16 16 16 16 16 16 1 na

$$$$
3mvm_chainB
     RDKit          3D

 10 10  0  0  0  0  0  0  0  0999 V2000
    5.2600   21.4380   35.2680 N   0  0  0  0  0  0  0  0  0  0  0  0
    6.2111   21.3176   35.5856 H   0  0  0  0  0  0  0  0  0  0  0  0
    5.0412   21.6958   33.9567 C   0  0  0  0  0  0  0  0  0  0  0  0
    4.1455   22.5288   33.4208 N   0  0  0  0  0  0  0  0  0  0  0  0
    4.3045   22.4490   32.0248 O   0  0  0  0  0  0  0  0  0  0  0  0
    5.2960   21.5654   31.7405 C   0  0  0  0  0  0  0  0  0  0  0  0
    5.6348   21.3043   30.7488 H   0  0  0  0  0  0  0  0  0  0  0  0
    5.7726   21.0837   32.8490 C   0  0  0  0  0  0  0  0  0  0  0  0
    6.5686   20.3590   32.9366 H   0  0  0  0  0  0  0  0  0  0  0  0
    4.2593   21.3352   36.1680 *   0  0  0  0  0  0  0  0  0  0  0  0
  1  2  1  0
  1  3  1  0
  3  4  2  0
  3  8  1  0
  4  5  1  0
  5  6  1  0
  6  7  1  0
  6  8  2  0
  8  9  1  0
  1 10  1  0
V   10 *
M  END
>  <kinase>  (5) 
p38a

>  <family>  (5) 
MAPK

>  <group>  (5) 
CMGC

>  <complex_pdb>  (5) 
3mvm

>  <ligand_pdb>  (5) 
39P

>  <alt>  (5) 
 

>  <chain>  (5) 
B

>  <atom.prop.subpocket>  (5) 
B2 B2 B2 B2 B2 B2 B2 B2 B2 GA

>  <atom.prop.environment>  (5) 
5 5 14 14 14 14 14 14 14 na

$$$$
1a9u_chainA
     RDKit          3D

 17 17  0  0  0  0  0  0  0  0999 V2000
    7.0984   12.4935   37.1172 O   0  0  0  0  0  0  0  0  0  0  0  0
    8.7400   14.3370   35.6775 C   0  0  0  0  0  0  0  0  0  0  0  0
    9.1756   13.4969   35.1366 H   0  0  0  0  0  0  0  0  0  0  0  0
    9.5054   15.0933   35.8515 H   0  0  0  0  0  0  0  0  0  0  0  0
    7.9307   14.7681   35.0882 H   0  0  0  0  0  0  0  0  0  0  0  0
    8.0830   13.7546   37.2810 S   0  0  0  0  0  0  0  0  0  0  0  0
    5.7365   15.9805   39.7480 C   0  0  0  0  0  0  0  0  0  0  0  0
    4.9178   15.8090   40.4311 H   0  0  0  0  0  0  0  0  0  0  0  0
    6.3080   14.8842   39.0606 C   0  0  0  0  0  0  0  0  0  0  0  0
    5.9358   13.8833   39.2221 H   0  0  0  0  0  0  0  0  0  0  0  0
    7.3784   15.1167   38.1545 C   0  0  0  0  0  0  0  0  0  0  0  0
    7.8998   16.4183   37.9288 C   0  0  0  0  0  0  0  0  0  0  0  0
    8.7187   16.5710   37.2415 H   0  0  0  0  0  0  0  0  0  0  0  0
    7.3290   17.5071   38.6184 C   0  0  0  0  0  0  0  0  0  0  0  0
    7.7189   18.4998   38.4481 H   0  0  0  0  0  0  0  0  0  0  0  0
    6.2289   17.3294   39.5529 C   0  0  0  0  0  0  0  0  0  0  0  0
    5.6405   18.4536   40.2272 *   0  0  0  0  0  0  0  0  0  0  0  0
  1  6  2  0
  2  3  1  0
  2  4  1  0
  2  5  1  0
  6  2  1  6
  6 11  1  0
  7  8  1  0
  7  9  2  0
  7 16  1  0
  9 10  1  0
  9 11  1  0
 11 12  2  0
 12 13  1  0
 12 14  1  0
 14 15  1  0
 14 16  2  0
 16 17  1  0
V   17 *
M  END
>  <kinase>  (6) 
p38a

>  <family>  (6) 
MAPK

>  <group>  (6) 
CMGC

>  <complex_pdb>  (6) 
1a9u

>  <ligand_pdb>  (6) 
SB2

>  <alt>  (6) 
 

>  <chain>  (6) 
A

>  <atom.prop.subpocket>  (6) 
B2 B2 B2 B2 B2 B2 B2 B2 B2 B2 B2 B2 B2 B2 B2 B2 GA

>  <atom.prop.environment>  (6) 
16 16 16 16 16 16 16 16 16 16 16 16 16 16 16 16 na

$$$$
3bv2_chainA
     RDKit          3D

 13 13  0  0  0  0  0  0  0  0999 V2000
    0.8173   24.1032   31.7293 C   0  0  0  0  0  0  0  0  0  0  0  0
    0.0048   24.0506   32.4388 H   0  0  0  0  0  0  0  0  0  0  0  0
    2.1482   23.9822   32.1860 C   0  0  0  0  0  0  0  0  0  0  0  0
    2.2660   23.7469   33.6102 C   0  0  0  0  0  0  0  0  0  0  0  0
    1.2913   23.2317   34.1893 O   0  0  0  0  0  0  0  0  0  0  0  0
    0.5282   24.2950   30.3371 C   0  0  0  0  0  0  0  0  0  0  0  0
    1.5695   24.3760   29.5218 N   0  0  0  0  0  0  0  0  0  0  0  0
    2.8655   24.2784   30.0185 C   0  0  0  0  0  0  0  0  0  0  0  0
    3.6514   24.3888   29.2861 H   0  0  0  0  0  0  0  0  0  0  0  0
    3.2849   24.0635   31.2977 C   0  0  0  0  0  0  0  0  0  0  0  0
    4.3165   23.9679   31.6027 H   0  0  0  0  0  0  0  0  0  0  0  0
    3.5370   24.0823   34.1269 *   0  0  0  0  0  0  0  0  0  0  0  0
   -0.8051   24.3740   29.9079 *   0  0  0  0  0  0  0  0  0  0  0  0
  1  2  1  0
  1  3  2  0
  1  6  1  0
  3  4  1  0
  3 10  1  0
  4  5  2  0
  6  7  2  0
  7  8  1  0
  8  9  1  0
  8 10  2  0
 10 11  1  0
  4 12  1  0
  6 13  1  0
V   12 *
V   13 *
M  END
>  <kinase>  (7) 
p38a

>  <family>  (7) 
MAPK

>  <group>  (7) 
CMGC

>  <complex_pdb>  (7) 
3bv2

>  <ligand_pdb>  (7) 
P38

>  <alt>  (7) 
 

>  <chain>  (7) 
A

>  <atom.prop.subpocket>  (7) 
B2 B2 B2 B2 B2 B2 B2 B2 B2 B2 B2 GA X-B1

>  <atom.prop.environment>  (7) 
16 16 16 6 6 16 16 16 16 16 16 na na

$$$$
5eko_chainA
     RDKit          3D

 22 23  0  0  0  0  0  0  0  0999 V2000
    4.5255   20.7377   35.0610 C   0  0  0  0  0  0  0  0  0  0  0  0
    4.0991   21.8457   34.3470 C   0  0  0  0  0  0  0  0  0  0  0  0
    3.3102   22.4726   34.7356 H   0  0  0  0  0  0  0  0  0  0  0  0
    4.6924   22.1438   33.1303 C   0  0  0  0  0  0  0  0  0  0  0  0
    4.3672   23.0067   32.5681 H   0  0  0  0  0  0  0  0  0  0  0  0
    5.7040   21.3340   32.6344 C   0  0  0  0  0  0  0  0  0  0  0  0
    6.1489   21.5834   31.6824 H   0  0  0  0  0  0  0  0  0  0  0  0
    5.5479   19.9479   34.5468 C   0  0  0  0  0  0  0  0  0  0  0  0
    5.8787   19.0942   35.1198 H   0  0  0  0  0  0  0  0  0  0  0  0
    6.1684   20.2109   33.3174 C   0  0  0  0  0  0  0  0  0  0  0  0
    7.1459   19.4317   32.8449 N   0  0  0  0  0  0  0  0  0  0  0  0
    7.5537   18.3686   33.5286 C   0  0  0  0  0  0  0  0  0  0  0  0
    7.2112   17.9898   34.4802 H   0  0  0  0  0  0  0  0  0  0  0  0
    7.7731   19.6556   31.6841 C   0  0  0  0  0  0  0  0  0  0  0  0
    7.6022   20.4621   30.9864 H   0  0  0  0  0  0  0  0  0  0  0  0
    8.6734   18.6421   31.5782 N   0  0  0  0  0  0  0  0  0  0  0  0
    8.5357   17.8804   32.6893 C   0  0  0  0  0  0  0  0  0  0  0  0
    9.2105   16.6383   33.2009 C   0  0  0  0  0  0  0  0  0  0  0  0
    8.7776   16.3590   34.1614 H   0  0  0  0  0  0  0  0  0  0  0  0
   10.2766   16.8287   33.3245 H   0  0  0  0  0  0  0  0  0  0  0  0
    9.0668   15.8267   32.4876 H   0  0  0  0  0  0  0  0  0  0  0  0
    3.8824   20.4177   36.3825 *   0  0  0  0  0  0  0  0  0  0  0  0
  1  2  2  0
  1  8  1  0
  2  3  1  0
  2  4  1  0
  4  5  1  0
  4  6  2  0
  6  7  1  0
  6 10  1  0
  8  9  1  0
  8 10  2  0
 10 11  1  0
 11 12  1  0
 11 14  1  0
 12 13  1  0
 12 17  2  0
 14 15  1  0
 14 16  2  0
 16 17  1  0
 17 18  1  0
 18 19  1  0
 18 20  1  0
 18 21  1  0
  1 22  1  0
V   22 *
M  END
>  <kinase>  (8) 
p38d

>  <family>  (8) 
MAPK

>  <group>  (8) 
CMGC

>  <complex_pdb>  (8) 
5eko

>  <ligand_pdb>  (8) 
N17

>  <alt>  (8) 
 

>  <chain>  (8) 
A

>  <atom.prop.subpocket>  (8) 
B2 B2 B2 B2 B2 B2 B2 B2 B2 B2 B2 B2 B2 B2 B2 B2 B2 B2 B2 B2 B2 GA

>  <atom.prop.environment>  (8) 
16 16 16 16 16 16 16 16 16 16 9 9 9 9 9 9 9 8 8 8 8 na

$$$$
4eym_chainA
     RDKit          3D

 24 25  0  0  0  0  0  0  0  0999 V2000
    4.6518   20.8831   34.9413 C   0  0  0  0  0  0  0  0  0  0  0  0
    5.6304   20.0248   34.4731 C   0  0  0  0  0  0  0  0  0  0  0  0
    5.9846   19.2110   35.0885 H   0  0  0  0  0  0  0  0  0  0  0  0
    6.1515   20.2235   33.2005 C   0  0  0  0  0  0  0  0  0  0  0  0
    7.1207   19.3394   32.7213 N   0  0  0  0  0  0  0  0  0  0  0  0
    7.3653   19.2521   31.2870 C   0  0  0  0  0  0  0  0  0  0  0  0
    7.1297   20.2026   30.8083 H   0  0  0  0  0  0  0  0  0  0  0  0
    6.7528   18.4635   30.8499 H   0  0  0  0  0  0  0  0  0  0  0  0
    8.8426   18.9277   31.1073 C   0  0  0  0  0  0  0  0  0  0  0  0
    9.4336   19.7680   31.4714 H   0  0  0  0  0  0  0  0  0  0  0  0
    9.0424   18.7755   30.0466 H   0  0  0  0  0  0  0  0  0  0  0  0
    9.2263   17.7501   31.8222 O   0  0  0  0  0  0  0  0  0  0  0  0
    8.2941   17.3075   32.8080 C   0  0  0  0  0  0  0  0  0  0  0  0
    8.7680   16.5631   33.4479 H   0  0  0  0  0  0  0  0  0  0  0  0
    7.4278   16.8652   32.3161 H   0  0  0  0  0  0  0  0  0  0  0  0
    7.8477   18.4929   33.6531 C   0  0  0  0  0  0  0  0  0  0  0  0
    7.1990   18.1661   34.4658 H   0  0  0  0  0  0  0  0  0  0  0  0
    8.7081   19.0205   34.0646 H   0  0  0  0  0  0  0  0  0  0  0  0
    5.7147   21.2374   32.4228 N   0  0  0  0  0  0  0  0  0  0  0  0
    4.7758   22.0806   32.8616 C   0  0  0  0  0  0  0  0  0  0  0  0
    4.4441   22.8904   32.2287 H   0  0  0  0  0  0  0  0  0  0  0  0
    4.2222   21.9221   34.1291 C   0  0  0  0  0  0  0  0  0  0  0  0
    3.4619   22.6050   34.4783 H   0  0  0  0  0  0  0  0  0  0  0  0
    4.0627   20.6948   36.3066 *   0  0  0  0  0  0  0  0  0  0  0  0
  1  2  2  0
  1 22  1  0
  2  3  1  0
  2  4  1  0
  4  5  1  0
  4 19  2  0
  5  6  1  0
  5 16  1  0
  6  7  1  0
  6  8  1  0
  6  9  1  0
  9 10  1  0
  9 11  1  0
  9 12  1  0
 12 13  1  0
 13 14  1  0
 13 15  1  0
 13 16  1  0
 16 17  1  0
 16 18  1  0
 19 20  1  0
 20 21  1  0
 20 22  2  0
 22 23  1  0
  1 24  1  0
V   24 *
M  END
>  <kinase>  (9) 
p38d

>  <family>  (9) 
MAPK

>  <group>  (9) 
CMGC

>  <complex_pdb>  (9) 
4eym

>  <ligand_pdb>  (9) 
0RX

>  <alt>  (9) 
 

>  <chain>  (9) 
A

>  <atom.prop.subpocket>  (9) 
B2 B2 B2 B2 B2 B2 B2 B2 B2 B2 B2 B2 B2 B2 B2 B2 B2 B2 B2 B2 B2 B2 B2 GA

>  <atom.prop.environment>  (9) 
16 16 16 16 5 5 5 5 5 5 5 5 5 5 5 5 5 5 16 16 16 16 16 na

$$$$
4aa4_chainA
     RDKit          3D

  9  9  0  0  0  0  0  0  0  0999 V2000
    4.3275   21.5754   34.4423 C   0  0  0  0  0  0  0  0  0  0  0  0
    3.5012   22.3265   33.4745 C   0  0  0  0  0  0  0  0  0  0  0  0
    2.5398   22.7979   33.6160 H   0  0  0  0  0  0  0  0  0  0  0  0
    4.2712   22.2656   32.3638 C   0  0  0  0  0  0  0  0  0  0  0  0
    4.0140   22.7183   31.4176 H   0  0  0  0  0  0  0  0  0  0  0  0
    5.4210   21.5543   32.5956 O   0  0  0  0  0  0  0  0  0  0  0  0
    5.4751   21.1427   33.8348 C   0  0  0  0  0  0  0  0  0  0  0  0
    6.2706   20.5721   34.2909 H   0  0  0  0  0  0  0  0  0  0  0  0
    4.0237   21.3642   35.8462 *   0  0  0  0  0  0  0  0  0  0  0  0
  1  2  1  0
  1  7  2  0
  2  3  1  0
  2  4  2  0
  4  5  1  0
  4  6  1  0
  6  7  1  0
  7  8  1  0
  1  9  1  0
V    9 *
M  END
>  <kinase>  (10) 
p38a

>  <family>  (10) 
MAPK

>  <group>  (10) 
CMGC

>  <complex_pdb>  (10) 
4aa4

>  <ligand_pdb>  (10) 
QC0

>  <alt>  (10) 
 

>  <chain>  (10) 
A

>  <atom.prop.subpocket>  (10) 
B2 B2 B2 B2 B2 B2 B2 B2 GA

>  <atom.prop.environment>  (10) 
16 16 16 16 16 16 16 16 na

$$$$
2zb0_altA_chainA
     RDKit          3D

 10 10  0  0  0  0  0  0  0  0999 V2000
    4.4402   22.0438   35.7141 C   0  0  0  0  0  0  0  0  0  0  0  0
    5.2736   22.1865   34.7890 O   0  0  0  0  0  0  0  0  0  0  0  0
    4.5817   22.0893   33.7641 C   0  0  0  0  0  0  0  0  0  0  0  0
    5.2016   22.2057   32.4045 C   0  0  0  0  0  0  0  0  0  0  0  0
    6.2742   22.3704   32.5071 H   0  0  0  0  0  0  0  0  0  0  0  0
    4.7545   23.0451   31.8720 H   0  0  0  0  0  0  0  0  0  0  0  0
    5.0270   21.2863   31.8456 H   0  0  0  0  0  0  0  0  0  0  0  0
    3.2755   21.8839   33.9634 N   0  0  0  0  0  0  0  0  0  0  0  0
    3.1799   21.8483   35.2753 N   0  0  0  0  0  0  0  0  0  0  0  0
    4.6600   22.0861   37.1850 *   0  0  0  0  0  0  0  0  0  0  0  0
  1  2  1  0
  1  9  2  0
  2  3  1  0
  3  4  1  0
  3  8  2  0
  4  5  1  0
  4  6  1  0
  4  7  1  0
  8  9  1  0
  1 10  1  0
V   10 *
M  END
>  <kinase>  (11) 
p38a

>  <family>  (11) 
MAPK

>  <group>  (11) 
CMGC

>  <complex_pdb>  (11) 
2zb0

>  <ligand_pdb>  (11) 
GK3

>  <alt>  (11) 
A

>  <chain>  (11) 
A

>  <atom.prop.subpocket>  (11) 
B2 B2 B2 B2 B2 B2 B2 B2 B2 GA

>  <atom.prop.environment>  (11) 
14 14 14 8 8 8 8 14 14 na

$$$$
2yix_chainA
     RDKit          3D

 10  9  0  0  0  0  0  0  0  0999 V2000
    5.3914   22.5089   32.5773 C   0  0  0  0  0  0  0  0  0  0  0  0
    5.0275   22.9484   31.6485 H   0  0  0  0  0  0  0  0  0  0  0  0
    6.0869   21.7013   32.3490 H   0  0  0  0  0  0  0  0  0  0  0  0
    5.9012   23.2722   33.1651 H   0  0  0  0  0  0  0  0  0  0  0  0
    4.1832   21.9416   33.3944 C   0  0  0  0  0  0  0  0  0  0  0  0
    3.6690   21.1703   32.8210 H   0  0  0  0  0  0  0  0  0  0  0  0
    3.4833   22.7412   33.6371 H   0  0  0  0  0  0  0  0  0  0  0  0
    4.7448   21.3725   34.6176 N   0  0  0  0  0  0  0  0  0  0  0  0
    5.7447   21.2329   34.6468 H   0  0  0  0  0  0  0  0  0  0  0  0
    4.0290   21.0133   35.7259 *   0  0  0  0  0  0  0  0  0  0  0  0
  1  2  1  0
  1  3  1  0
  1  4  1  0
  1  5  1  0
  5  6  1  0
  5  7  1  0
  5  8  1  0
  8  9  1  0
  8 10  1  0
V   10 *
M  END
>  <kinase>  (12) 
p38a

>  <family>  (12) 
MAPK

>  <group>  (12) 
CMGC

>  <complex_pdb>  (12) 
2yix

>  <ligand_pdb>  (12) 
YIX

>  <alt>  (12) 
 

>  <chain>  (12) 
A

>  <atom.prop.subpocket>  (12) 
B2 B2 B2 B2 B2 B2 B2 B2 B2 GA

>  <atom.prop.environment>  (12) 
4 4 4 4 4 4 4 5 5 na

$$$$
2rg5_chainA
     RDKit          3D

 10  9  0  0  0  0  0  0  0  0999 V2000
    4.1476   21.7024   35.8736 C   0  0  0  0  0  0  0  0  0  0  0  0
    4.2922   22.4337   32.7474 C   0  0  0  0  0  0  0  0  0  0  0  0
    3.9887   22.0065   31.7916 H   0  0  0  0  0  0  0  0  0  0  0  0
    5.1269   23.1170   32.5913 H   0  0  0  0  0  0  0  0  0  0  0  0
    3.4547   22.9771   33.1849 H   0  0  0  0  0  0  0  0  0  0  0  0
    5.0940   21.9412   34.8899 N   0  0  0  0  0  0  0  0  0  0  0  0
    5.9577   22.4423   35.0417 H   0  0  0  0  0  0  0  0  0  0  0  0
    2.9514   21.5454   35.6333 O   0  0  0  0  0  0  0  0  0  0  0  0
    4.6930   21.3875   33.6297 O   0  0  0  0  0  0  0  0  0  0  0  0
    4.5796   21.6332   37.3028 *   0  0  0  0  0  0  0  0  0  0  0  0
  1  6  1  0
  1  8  2  0
  2  3  1  0
  2  4  1  0
  2  5  1  0
  2  9  1  0
  6  7  1  0
  6  9  1  0
  1 10  1  0
V   10 *
M  END
>  <kinase>  (13) 
p38a

>  <family>  (13) 
MAPK

>  <group>  (13) 
CMGC

>  <complex_pdb>  (13) 
2rg5

>  <ligand_pdb>  (13) 
279

>  <alt>  (13) 
 

>  <chain>  (13) 
A

>  <atom.prop.subpocket>  (13) 
B2 B2 B2 B2 B2 B2 B2 B2 B2 GA

>  <atom.prop.environment>  (13) 
6 6 6 6 6 6 6 6 6 na

$$$$
3nyx_altA_chainA
     RDKit          3D

  9  9  0  0  0  0  0  0  0  0999 V2000
    7.0538   20.0017   34.1918 S   0  0  0  0  0  0  0  0  0  0  0  0
    5.6132   20.5408   34.8035 C   0  0  0  0  0  0  0  0  0  0  0  0
    5.1319   21.5699   34.2169 C   0  0  0  0  0  0  0  0  0  0  0  0
    4.2253   22.0801   34.5073 H   0  0  0  0  0  0  0  0  0  0  0  0
    5.8868   21.9101   33.2274 C   0  0  0  0  0  0  0  0  0  0  0  0
    5.6040   22.7026   32.5504 H   0  0  0  0  0  0  0  0  0  0  0  0
    7.0448   21.2340   33.0741 C   0  0  0  0  0  0  0  0  0  0  0  0
    7.8226   21.4528   32.3576 H   0  0  0  0  0  0  0  0  0  0  0  0
    5.0012   19.8395   35.9205 *   0  0  0  0  0  0  0  0  0  0  0  0
  1  2  1  0
  1  7  1  0
  2  3  2  0
  3  4  1  0
  3  5  1  0
  5  6  1  0
  5  7  2  0
  7  8  1  0
  2  9  1  0
V    9 *
M  END
>  <kinase>  (14) 
TYK2

>  <family>  (14) 
JakA

>  <group>  (14) 
TK

>  <complex_pdb>  (14) 
3nyx

>  <ligand_pdb>  (14) 
TZ1

>  <alt>  (14) 
A

>  <chain>  (14) 
A

>  <atom.prop.subpocket>  (14) 
B2 B2 B2 B2 B2 B2 B2 B2 GA

>  <atom.prop.environment>  (14) 
14 14 14 14 14 14 14 14 na

$$$$
5n9s_chainA
     RDKit          3D

 20 20  0  0  0  0  0  0  0  0999 V2000
   11.5573   19.9139   36.1778 F   0  0  0  0  0  0  0  0  0  0  0  0
   10.2674   19.7046   35.9655 C   0  0  0  0  0  0  0  0  0  0  0  0
    9.3190   20.7435   36.0285 C   0  0  0  0  0  0  0  0  0  0  0  0
    9.6281   21.7509   36.2653 H   0  0  0  0  0  0  0  0  0  0  0  0
    7.9838   20.4596   35.7831 C   0  0  0  0  0  0  0  0  0  0  0  0
    7.2363   21.2351   35.8615 H   0  0  0  0  0  0  0  0  0  0  0  0
    9.9257   18.4426   35.6033 C   0  0  0  0  0  0  0  0  0  0  0  0
   10.6785   17.6756   35.4968 H   0  0  0  0  0  0  0  0  0  0  0  0
    8.5983   18.1622   35.3746 C   0  0  0  0  0  0  0  0  0  0  0  0
    8.3054   17.1486   35.1440 H   0  0  0  0  0  0  0  0  0  0  0  0
    7.6192   19.1598   35.4340 C   0  0  0  0  0  0  0  0  0  0  0  0
    6.1901   18.8406   35.1861 C   0  0  1  0  0  0  0  0  0  0  0  0
    5.7845   19.7000   34.6523 H   0  0  0  0  0  0  0  0  0  0  0  0
    5.9200   17.6104   34.2790 C   0  0  0  0  0  0  0  0  0  0  0  0
    6.3052   16.7119   34.7610 H   0  0  0  0  0  0  0  0  0  0  0  0
    6.4181   17.7501   33.3196 H   0  0  0  0  0  0  0  0  0  0  0  0
    4.8468   17.5054   34.1193 H   0  0  0  0  0  0  0  0  0  0  0  0
    5.5246   18.5744   36.5427 C   0  0  0  0  0  0  0  0  0  0  0  0
    5.7526   17.5279   37.1253 O   0  0  0  0  0  0  0  0  0  0  0  0
    4.7206   19.5222   37.0375 *   0  0  0  0  0  0  0  0  0  0  0  0
  1  2  1  0
  2  3  2  0
  2  7  1  0
  3  4  1  0
  3  5  1  0
  5  6  1  0
  5 11  2  0
  7  8  1  0
  7  9  2  0
  9 10  1  0
  9 11  1  0
 11 12  1  0
 12 13  1  6
 12 14  1  0
 12 18  1  0
 14 15  1  0
 14 16  1  0
 14 17  1  0
 18 19  2  0
 18 20  1  0
V   20 *
M  END
>  <kinase>  (15) 
TTK

>  <family>  (15) 
TTK

>  <group>  (15) 
Other

>  <complex_pdb>  (15) 
5n9s

>  <ligand_pdb>  (15) 
8QW

>  <alt>  (15) 
 

>  <chain>  (15) 
A

>  <atom.prop.subpocket>  (15) 
B2 B2 B2 B2 B2 B2 B2 B2 B2 B2 B2 B2 B2 B2 B2 B2 B2 B2 B2 GA

>  <atom.prop.environment>  (15) 
16 16 16 16 16 16 16 16 16 16 16 8 8 8 8 8 8 8 8 na

$$$$
3tuc_chainA
     RDKit          3D

 15 15  0  0  0  0  0  0  0  0999 V2000
    6.7555   23.0005   34.2815 N   0  0  0  0  0  0  0  0  0  0  0  0
    6.0755   22.3351   35.2556 C   0  0  0  0  0  0  0  0  0  0  0  0
    8.2137   23.1887   34.3608 C   0  0  0  0  0  0  0  0  0  0  0  0
    8.6175   23.2418   33.3497 H   0  0  0  0  0  0  0  0  0  0  0  0
    8.6509   22.3373   34.8824 H   0  0  0  0  0  0  0  0  0  0  0  0
    6.0988   23.5245   33.1884 C   0  0  0  0  0  0  0  0  0  0  0  0
    6.6795   24.0234   32.4267 H   0  0  0  0  0  0  0  0  0  0  0  0
    4.6390   22.2227   35.1329 C   0  0  0  0  0  0  0  0  0  0  0  0
    6.6710   21.8264   36.2167 O   0  0  0  0  0  0  0  0  0  0  0  0
    4.7381   23.4391   33.0269 C   0  0  0  0  0  0  0  0  0  0  0  0
    4.2598   23.8623   32.1560 H   0  0  0  0  0  0  0  0  0  0  0  0
    3.9778   22.7890   34.0184 C   0  0  0  0  0  0  0  0  0  0  0  0
    2.9035   22.7238   33.9288 H   0  0  0  0  0  0  0  0  0  0  0  0
    3.8631   21.5477   36.1777 *   0  0  0  0  0  0  0  0  0  0  0  0
    8.5846   24.4722   35.1101 *   0  0  0  0  0  0  0  0  0  0  0  0
  1  2  1  0
  1  3  1  0
  1  6  1  0
  2  8  1  0
  2  9  2  0
  3  4  1  0
  3  5  1  0
  6  7  1  0
  6 10  2  0
  8 12  2  0
 10 11  1  0
 10 12  1  0
 12 13  1  0
  8 14  1  0
  3 15  1  0
V   14 *
V   15 *
M  END
>  <kinase>  (16) 
SYK

>  <family>  (16) 
Syk

>  <group>  (16) 
TK

>  <complex_pdb>  (16) 
3tuc

>  <ligand_pdb>  (16) 
FPW

>  <alt>  (16) 
 

>  <chain>  (16) 
A

>  <atom.prop.subpocket>  (16) 
B2 B2 B2 B2 B2 B2 B2 B2 B2 B2 B2 B2 B2 GA B1

>  <atom.prop.environment>  (16) 
9 9 8 8 8 9 9 9 9 9 9 9 9 na na

$$$$
6e9w_chainB
     RDKit          3D

 18 19  0  0  0  0  0  0  0  0999 V2000
    7.8682   15.0001   38.9230 C   0  0  0  0  0  0  0  0  0  0  0  0
    8.1385   15.2395   39.9409 H   0  0  0  0  0  0  0  0  0  0  0  0
    8.8683   14.7354   37.9724 C   0  0  0  0  0  0  0  0  0  0  0  0
    9.9114   14.7749   38.2496 H   0  0  0  0  0  0  0  0  0  0  0  0
    8.4900   14.4163   36.6471 C   0  0  0  0  0  0  0  0  0  0  0  0
    7.1303   14.3745   36.2545 C   0  0  0  0  0  0  0  0  0  0  0  0
    7.7758   13.8419   34.0241 C   0  0  0  0  0  0  0  0  0  0  0  0
    7.4500   14.2115   33.0518 H   0  0  0  0  0  0  0  0  0  0  0  0
    7.9599   12.7694   33.9621 H   0  0  0  0  0  0  0  0  0  0  0  0
    6.1132   14.6675   37.1929 C   0  0  0  0  0  0  0  0  0  0  0  0
    6.7473   14.0719   34.9645 O   0  0  0  0  0  0  0  0  0  0  0  0
    9.1005   14.5534   34.4092 C   0  0  0  0  0  0  0  0  0  0  0  0
    8.9536   15.6328   34.3707 H   0  0  0  0  0  0  0  0  0  0  0  0
    9.8807   14.2676   33.7037 H   0  0  0  0  0  0  0  0  0  0  0  0
    9.4976   14.1790   35.7274 O   0  0  0  0  0  0  0  0  0  0  0  0
    6.5073   14.9525   38.5437 C   0  0  0  0  0  0  0  0  0  0  0  0
    5.7459   15.1347   39.2877 H   0  0  0  0  0  0  0  0  0  0  0  0
    4.6810   14.7558   36.6988 *   0  0  0  0  0  0  0  0  0  0  0  0
  1  2  1  0
  1  3  2  0
  1 16  1  0
  3  4  1  0
  3  5  1  0
  5  6  2  0
  5 15  1  0
  6 10  1  0
  6 11  1  0
  7  8  1  0
  7  9  1  0
  7 11  1  0
  7 12  1  0
 10 16  2  0
 12 13  1  0
 12 14  1  0
 12 15  1  0
 16 17  1  0
 10 18  1  0
V   18 *
M  END
>  <kinase>  (17) 
ROCK1

>  <family>  (17) 
DMPK

>  <group>  (17) 
AGC

>  <complex_pdb>  (17) 
6e9w

>  <ligand_pdb>  (17) 
J0P

>  <alt>  (17) 
 

>  <chain>  (17) 
B

>  <atom.prop.subpocket>  (17) 
B2 B2 B2 B2 B2 B2 B2 B2 B2 B2 B2 B2 B2 B2 B2 B2 B2 GA

>  <atom.prop.environment>  (17) 
16 16 16 16 16 16 16 16 16 16 16 16 16 16 16 16 16 na

$$$$
3u6i_chainA
     RDKit          3D

 12 11  0  0  0  0  0  0  0  0999 V2000
    5.3183   23.8026   32.4067 C   0  0  0  0  0  0  0  0  0  0  0  0
    6.1972   24.4303   32.5534 H   0  0  0  0  0  0  0  0  0  0  0  0
    4.4293   24.4304   32.3465 H   0  0  0  0  0  0  0  0  0  0  0  0
    5.4768   23.1109   31.0516 C   0  0  1  0  0  0  0  0  0  0  0  0
    4.6324   22.4404   30.8922 H   0  0  0  0  0  0  0  0  0  0  0  0
    5.5005   24.1664   29.9345 C   0  0  0  0  0  0  0  0  0  0  0  0
    6.3434   24.8401   30.0890 H   0  0  0  0  0  0  0  0  0  0  0  0
    4.5716   24.7364   29.9535 H   0  0  0  0  0  0  0  0  0  0  0  0
    5.6032   23.6713   28.9689 H   0  0  0  0  0  0  0  0  0  0  0  0
    6.6721   22.3408   31.0272 O   0  0  0  0  0  0  0  0  0  0  0  0
    7.1044   22.4489   31.8776 H   0  0  0  0  0  0  0  0  0  0  0  0
    5.1756   22.9492   33.6252 *   0  0  0  0  0  0  0  0  0  0  0  0
  1  2  1  0
  1  3  1  0
  1  4  1  0
  4  5  1  6
  4  6  1  0
  4 10  1  0
  6  7  1  0
  6  8  1  0
  6  9  1  0
 10 11  1  0
  1 12  1  0
V   12 *
M  END
>  <kinase>  (18) 
MET

>  <family>  (18) 
Met

>  <group>  (18) 
TK

>  <complex_pdb>  (18) 
3u6i

>  <ligand_pdb>  (18) 
044

>  <alt>  (18) 
 

>  <chain>  (18) 
A

>  <atom.prop.subpocket>  (18) 
B2 B2 B2 B2 B2 B2 B2 B2 B2 B2 B2 B1

>  <atom.prop.environment>  (18) 
8 8 8 8 8 8 8 8 8 3 3 na

$$$$
3f5p_chainA
     RDKit          3D

 12 12  0  0  0  0  0  0  0  0999 V2000
    7.5540   21.1673   38.2789 C   0  0  0  0  0  0  0  0  0  0  0  0
    8.1241   20.0146   37.8873 N   0  0  0  0  0  0  0  0  0  0  0  0
    7.8635   20.0251   36.5515 C   0  0  0  0  0  0  0  0  0  0  0  0
    8.1607   19.2566   35.8533 H   0  0  0  0  0  0  0  0  0  0  0  0
    7.1446   21.1950   36.2176 C   0  0  0  0  0  0  0  0  0  0  0  0
    6.8140   21.4716   35.2274 H   0  0  0  0  0  0  0  0  0  0  0  0
    6.9393   21.9138   37.3536 N   0  0  0  0  0  0  0  0  0  0  0  0
    6.2657   23.1997   37.5389 C   0  0  0  0  0  0  0  0  0  0  0  0
    6.2903   23.4741   38.5935 H   0  0  0  0  0  0  0  0  0  0  0  0
    5.2301   23.1183   37.2087 H   0  0  0  0  0  0  0  0  0  0  0  0
    6.7750   23.9645   36.9525 H   0  0  0  0  0  0  0  0  0  0  0  0
    7.5101   21.7020   39.9860 *   0  0  0  0  0  0  0  0  0  0  0  0
  1  2  2  0
  1  7  1  0
  2  3  1  0
  3  4  1  0
  3  5  2  0
  5  6  1  0
  5  7  1  0
  7  8  1  0
  8  9  1  0
  8 10  1  0
  8 11  1  0
  1 12  1  0
V   12 *
M  END
>  <kinase>  (19) 
IGF1R

>  <family>  (19) 
InsR

>  <group>  (19) 
TK

>  <complex_pdb>  (19) 
3f5p

>  <ligand_pdb>  (19) 
741

>  <alt>  (19) 
 

>  <chain>  (19) 
A

>  <atom.prop.subpocket>  (19) 
B2 B2 B2 B2 B2 B2 B2 B2 B2 B2 B2 GA

>  <atom.prop.environment>  (19) 
14 14 14 14 14 14 14 8 8 8 8 na

$$$$
2c0i_altB_chainB
     RDKit          3D

 19 20  0  0  0  0  0  0  0  0999 V2000
    4.7466   21.0225   35.6350 C   0  0  0  0  0  0  0  0  0  0  0  0
    4.7047   22.0249   34.7156 N   0  0  0  0  0  0  0  0  0  0  0  0
    5.9600   20.3449   35.5459 C   0  0  0  0  0  0  0  0  0  0  0  0
    6.3042   19.4996   36.1232 H   0  0  0  0  0  0  0  0  0  0  0  0
    5.8596   22.0684   34.0018 C   0  0  0  0  0  0  0  0  0  0  0  0
    3.5699   22.9613   34.5151 C   0  0  0  0  0  0  0  0  0  0  0  0
    2.7678   22.7142   35.2106 H   0  0  0  0  0  0  0  0  0  0  0  0
    3.2036   22.8745   33.4922 H   0  0  0  0  0  0  0  0  0  0  0  0
    3.9054   23.9826   34.6954 H   0  0  0  0  0  0  0  0  0  0  0  0
    6.6368   21.0469   34.4999 C   0  0  0  0  0  0  0  0  0  0  0  0
    6.3401   22.8747   32.9565 C   0  0  0  0  0  0  0  0  0  0  0  0
    5.7232   23.6711   32.5671 H   0  0  0  0  0  0  0  0  0  0  0  0
    7.9142   20.8124   33.9639 C   0  0  0  0  0  0  0  0  0  0  0  0
    8.5227   20.0092   34.3527 H   0  0  0  0  0  0  0  0  0  0  0  0
    7.6110   22.6541   32.4165 C   0  0  0  0  0  0  0  0  0  0  0  0
    7.9788   23.2769   31.6145 H   0  0  0  0  0  0  0  0  0  0  0  0
    8.4003   21.6186   32.9257 C   0  0  0  0  0  0  0  0  0  0  0  0
    9.3848   21.4400   32.5190 H   0  0  0  0  0  0  0  0  0  0  0  0
    3.6688   20.6445   36.5961 *   0  0  0  0  0  0  0  0  0  0  0  0
  1  2  1  0
  1  3  2  0
  2  5  1  0
  2  6  1  0
  3  4  1  0
  3 10  1  0
  5 10  2  0
  5 11  1  0
  6  7  1  0
  6  8  1  0
  6  9  1  0
 10 13  1  0
 11 12  1  0
 11 15  2  0
 13 14  1  0
 13 17  2  0
 15 16  1  0
 15 17  1  0
 17 18  1  0
  1 19  1  0
V   19 *
M  END
>  <kinase>  (20) 
HCK

>  <family>  (20) 
Src

>  <group>  (20) 
TK

>  <complex_pdb>  (20) 
2c0i

>  <ligand_pdb>  (20) 
L1G

>  <alt>  (20) 
B

>  <chain>  (20) 
B

>  <atom.prop.subpocket>  (20) 
B2 B2 B2 B2 B2 B2 B2 B2 B2 B2 B2 B2 B2 B2 B2 B2 B2 B2 GA

>  <atom.prop.environment>  (20) 
9 9 9 9 9 8 8 8 8 9 9 9 9 9 9 9 9 9 na

$$$$
5zv2_chainA
     RDKit          3D

 11 11  0  0  0  0  0  0  0  0999 V2000
    4.6149   21.6063   35.6161 N   0  0  0  0  0  0  0  0  0  0  0  0
    5.6186   21.5359   35.7037 H   0  0  0  0  0  0  0  0  0  0  0  0
    4.0653   22.2632   34.4436 C   0  0  0  0  0  0  0  0  0  0  0  0
    3.0802   22.4446   34.8734 H   0  0  0  0  0  0  0  0  0  0  0  0
    4.9403   23.1495   33.5563 C   0  0  0  0  0  0  0  0  0  0  0  0
    5.9211   23.4725   33.9054 H   0  0  0  0  0  0  0  0  0  0  0  0
    4.4874   23.9424   32.9610 H   0  0  0  0  0  0  0  0  0  0  0  0
    4.7031   21.6857   33.1880 C   0  0  0  0  0  0  0  0  0  0  0  0
    4.0822   21.4342   32.3282 H   0  0  0  0  0  0  0  0  0  0  0  0
    5.5159   20.9643   33.2726 H   0  0  0  0  0  0  0  0  0  0  0  0
    3.8468   21.0874   36.5910 *   0  0  0  0  0  0  0  0  0  0  0  0
  1  2  1  0
  1  3  1  0
  3  4  1  0
  3  5  1  0
  3  8  1  0
  5  6  1  0
  5  7  1  0
  5  8  1  0
  8  9  1  0
  8 10  1  0
  1 11  1  0
V   11 *
M  END
>  <kinase>  (21) 
FGFR1

>  <family>  (21) 
FGFR

>  <group>  (21) 
TK

>  <complex_pdb>  (21) 
5zv2

>  <ligand_pdb>  (21) 
LEV

>  <alt>  (21) 
 

>  <chain>  (21) 
A

>  <atom.prop.subpocket>  (21) 
B2 B2 B2 B2 B2 B2 B2 B2 B2 B2 GA

>  <atom.prop.environment>  (21) 
5 5 15 15 15 15 15 15 15 15 na

$$$$
6opi_chainA
     RDKit          3D

 30 31  0  0  0  0  0  0  0  0999 V2000
    5.2790   18.6212   35.1161 C   0  0  0  0  0  0  0  0  0  0  0  0
    4.8861   19.6022   35.3831 H   0  0  0  0  0  0  0  0  0  0  0  0
    4.8760   18.3191   34.1494 H   0  0  0  0  0  0  0  0  0  0  0  0
    6.7976   18.7230   34.9977 C   0  0  0  0  0  0  0  0  0  0  0  0
    7.3521   19.1127   36.0156 O   0  0  0  0  0  0  0  0  0  0  0  0
    7.4901   18.8182   33.8264 N   0  0  0  0  0  0  0  0  0  0  0  0
    8.8831   19.2583   33.9320 C   0  0  0  0  0  0  0  0  0  0  0  0
    8.9843   19.9303   34.7843 H   0  0  0  0  0  0  0  0  0  0  0  0
    9.1643   19.7840   33.0195 H   0  0  0  0  0  0  0  0  0  0  0  0
    9.8060   18.0556   34.1258 C   0  0  0  0  0  0  0  0  0  0  0  0
    9.8262   17.8052   35.1864 H   0  0  0  0  0  0  0  0  0  0  0  0
   10.8077   18.3349   33.7993 H   0  0  0  0  0  0  0  0  0  0  0  0
    9.3707   16.8079   33.3413 C   0  0  0  0  0  0  0  0  0  0  0  0
    8.1097   16.6923   32.8699 C   0  0  0  0  0  0  0  0  0  0  0  0
    7.7025   15.7198   32.6359 H   0  0  0  0  0  0  0  0  0  0  0  0
    7.2700   17.9423   32.6720 C   0  0  0  0  0  0  0  0  0  0  0  0
    7.5733   18.4515   31.7572 H   0  0  0  0  0  0  0  0  0  0  0  0
    6.2156   17.6740   32.6060 H   0  0  0  0  0  0  0  0  0  0  0  0
   10.2755   15.6471   33.4830 C   0  0  0  0  0  0  0  0  0  0  0  0
   11.6546   15.8601   33.7485 C   0  0  0  0  0  0  0  0  0  0  0  0
   12.0484   16.8631   33.8210 H   0  0  0  0  0  0  0  0  0  0  0  0
   12.5128   14.7345   33.9182 C   0  0  0  0  0  0  0  0  0  0  0  0
   13.5566   14.9127   34.1306 H   0  0  0  0  0  0  0  0  0  0  0  0
   12.0626   13.3863   33.8216 C   0  0  0  0  0  0  0  0  0  0  0  0
   10.6824   13.1877   33.5567 C   0  0  0  0  0  0  0  0  0  0  0  0
   10.2868   12.1857   33.4801 H   0  0  0  0  0  0  0  0  0  0  0  0
    9.8188   14.3072   33.3919 C   0  0  0  0  0  0  0  0  0  0  0  0
    8.7731   14.1292   33.1891 H   0  0  0  0  0  0  0  0  0  0  0  0
    4.8324   17.6353   36.1452 *   0  0  0  0  0  0  0  0  0  0  0  0
   12.9594   12.2767   34.0520 *   0  0  0  0  0  0  0  0  0  0  0  0
  1  2  1  0
  1  3  1  0
  1  4  1  0
  4  5  2  0
  4  6  1  0
  6  7  1  0
  6 16  1  0
  7  8  1  0
  7  9  1  0
  7 10  1  0
 10 11  1  0
 10 12  1  0
 10 13  1  0
 13 14  2  0
 13 19  1  0
 14 15  1  0
 14 16  1  0
 16 17  1  0
 16 18  1  0
 19 20  2  0
 19 27  1  0
 20 21  1  0
 20 22  1  0
 22 23  1  0
 22 24  2  0
 24 25  1  0
 25 26  1  0
 25 27  2  0
 27 28  1  0
  1 29  1  0
 24 30  1  0
V   29 *
V   30 *
M  END
>  <kinase>  (22) 
Erk2

>  <family>  (22) 
MAPK

>  <group>  (22) 
CMGC

>  <complex_pdb>  (22) 
6opi

>  <ligand_pdb>  (22) 
N0V

>  <alt>  (22) 
 

>  <chain>  (22) 
A

>  <atom.prop.subpocket>  (22) 
B2 B2 B2 B2 B2 B2 B2 B2 B2 B2 B2 B2 B2 B2 B2 B2 B2 B2 B2 B2 B2 B2 B2 B2 B2 B2 B2 B2 GA X-B2

>  <atom.prop.environment>  (22) 
4 4 4 4 4 16 16 16 16 16 16 16 16 16 16 16 16 16 16 16 16 16 16 16 16 16 16 16 na na

$$$$
4fv2_altB_chainA
     RDKit          3D

 20 21  0  0  0  0  0  0  0  0999 V2000
    3.1888   16.6635   37.0363 C   0  0  0  0  0  0  0  0  0  0  0  0
    3.2740   17.3394   36.1854 H   0  0  0  0  0  0  0  0  0  0  0  0
    2.5277   15.8361   36.7784 H   0  0  0  0  0  0  0  0  0  0  0  0
    4.5567   16.1021   37.3346 C   0  0  0  0  0  0  0  0  0  0  0  0
    4.8896   15.6341   38.6115 C   0  0  0  0  0  0  0  0  0  0  0  0
    4.1572   15.6940   39.4029 H   0  0  0  0  0  0  0  0  0  0  0  0
    6.1385   15.0952   38.8835 C   0  0  0  0  0  0  0  0  0  0  0  0
    6.3868   14.7466   39.8751 H   0  0  0  0  0  0  0  0  0  0  0  0
    7.0603   15.0154   37.8505 C   0  0  0  0  0  0  0  0  0  0  0  0
    8.3283   14.4831   37.8789 O   0  0  0  0  0  0  0  0  0  0  0  0
    8.9402   14.6098   36.5635 C   0  0  0  0  0  0  0  0  0  0  0  0
    9.2300   13.6266   36.1928 H   0  0  0  0  0  0  0  0  0  0  0  0
    9.8207   15.2494   36.6240 H   0  0  0  0  0  0  0  0  0  0  0  0
    7.9098   15.2330   35.6298 C   0  0  0  0  0  0  0  0  0  0  0  0
    7.6295   14.5482   34.8294 H   0  0  0  0  0  0  0  0  0  0  0  0
    8.2729   16.1661   35.1991 H   0  0  0  0  0  0  0  0  0  0  0  0
    6.7656   15.4710   36.5795 C   0  0  0  0  0  0  0  0  0  0  0  0
    5.5179   16.0204   36.3299 C   0  0  0  0  0  0  0  0  0  0  0  0
    5.2875   16.3906   35.3418 H   0  0  0  0  0  0  0  0  0  0  0  0
    2.5938   17.3959   38.1442 *   0  0  0  0  0  0  0  0  0  0  0  0
  1  2  1  0
  1  3  1  0
  1  4  1  0
  4  5  2  0
  4 18  1  0
  5  6  1  0
  5  7  1  0
  7  8  1  0
  7  9  2  0
  9 10  1  0
  9 17  1  0
 10 11  1  0
 11 12  1  0
 11 13  1  0
 11 14  1  0
 14 15  1  0
 14 16  1  0
 14 17  1  0
 17 18  2  0
 18 19  1  0
  1 20  1  0
V   20 *
M  END
>  <kinase>  (23) 
Erk2

>  <family>  (23) 
MAPK

>  <group>  (23) 
CMGC

>  <complex_pdb>  (23) 
4fv2

>  <ligand_pdb>  (23) 
EK5

>  <alt>  (23) 
B

>  <chain>  (23) 
A

>  <atom.prop.subpocket>  (23) 
B2 B2 B2 B2 B2 B2 B2 B2 B2 B2 B2 B2 B2 B2 B2 B2 B2 B2 B2 GA

>  <atom.prop.environment>  (23) 
8 8 8 16 16 16 16 16 16 16 16 16 16 16 16 16 16 16 16 na

$$$$
4qtb_altB_chainA
     RDKit          3D

 31 32  0  0  0  0  0  0  0  0999 V2000
    5.4230   18.4645   34.8847 C   0  0  0  0  0  0  0  0  0  0  0  0
    4.8174   19.2288   34.3977 H   0  0  0  0  0  0  0  0  0  0  0  0
    5.3923   17.5473   34.2966 H   0  0  0  0  0  0  0  0  0  0  0  0
    6.8562   18.9534   34.9042 C   0  0  0  0  0  0  0  0  0  0  0  0
    7.3352   19.3764   35.9453 O   0  0  0  0  0  0  0  0  0  0  0  0
    7.5323   18.9115   33.7421 N   0  0  0  0  0  0  0  0  0  0  0  0
    7.1566   18.1577   32.5405 C   0  0  0  0  0  0  0  0  0  0  0  0
    7.3894   18.7479   31.6541 H   0  0  0  0  0  0  0  0  0  0  0  0
    6.0878   17.9448   32.5648 H   0  0  0  0  0  0  0  0  0  0  0  0
    7.9290   16.8567   32.4972 C   0  0  0  0  0  0  0  0  0  0  0  0
    7.7472   16.3704   31.5388 H   0  0  0  0  0  0  0  0  0  0  0  0
    7.5795   16.2121   33.3037 H   0  0  0  0  0  0  0  0  0  0  0  0
    9.3743   17.0734   32.6539 N   0  0  0  0  0  0  0  0  0  0  0  0
    9.7416   18.0201   33.7170 C   0  0  0  0  0  0  0  0  0  0  0  0
   10.7965   18.2741   33.6134 H   0  0  0  0  0  0  0  0  0  0  0  0
    9.5755   17.5455   34.6841 H   0  0  0  0  0  0  0  0  0  0  0  0
    8.9341   19.2748   33.6500 C   0  0  0  0  0  0  0  0  0  0  0  0
    9.2012   19.9313   34.4781 H   0  0  0  0  0  0  0  0  0  0  0  0
    9.1224   19.7858   32.7058 H   0  0  0  0  0  0  0  0  0  0  0  0
   10.1102   15.8563   32.6062 C   0  0  0  0  0  0  0  0  0  0  0  0
    9.4821   14.7023   32.1619 C   0  0  0  0  0  0  0  0  0  0  0  0
    8.4552   14.7526   31.8313 H   0  0  0  0  0  0  0  0  0  0  0  0
   10.1444   13.4885   32.1335 C   0  0  0  0  0  0  0  0  0  0  0  0
    9.6240   12.6088   31.7847 H   0  0  0  0  0  0  0  0  0  0  0  0
   11.4537   13.3811   32.5414 C   0  0  0  0  0  0  0  0  0  0  0  0
   12.1111   14.5446   33.0000 C   0  0  0  0  0  0  0  0  0  0  0  0
   13.1353   14.4781   33.3361 H   0  0  0  0  0  0  0  0  0  0  0  0
   11.4539   15.7887   33.0264 C   0  0  0  0  0  0  0  0  0  0  0  0
   11.9699   16.6759   33.3627 H   0  0  0  0  0  0  0  0  0  0  0  0
    4.8442   18.1914   36.1364 *   0  0  0  0  0  0  0  0  0  0  0  0
   12.0975   12.0232   32.5982 *   0  0  0  0  0  0  0  0  0  0  0  0
  1  2  1  0
  1  3  1  0
  1  4  1  0
  4  5  2  0
  4  6  1  0
  6  7  1  0
  6 17  1  0
  7  8  1  0
  7  9  1  0
  7 10  1  0
 10 11  1  0
 10 12  1  0
 10 13  1  0
 13 14  1  0
 13 20  1  0
 14 15  1  0
 14 16  1  0
 14 17  1  0
 17 18  1  0
 17 19  1  0
 20 21  2  0
 20 28  1  0
 21 22  1  0
 21 23  1  0
 23 24  1  0
 23 25  2  0
 25 26  1  0
 26 27  1  0
 26 28  2  0
 28 29  1  0
  1 30  1  0
 25 31  1  0
V   30 *
V   31 *
M  END
>  <kinase>  (24) 
Erk1

>  <family>  (24) 
MAPK

>  <group>  (24) 
CMGC

>  <complex_pdb>  (24) 
4qtb

>  <ligand_pdb>  (24) 
38Z

>  <alt>  (24) 
B

>  <chain>  (24) 
A

>  <atom.prop.subpocket>  (24) 
B2 B2 B2 B2 B2 B2 B2 B2 B2 B2 B2 B2 B2 B2 B2 B2 B2 B2 B2 B2 B2 B2 B2 B2 B2 B2 B2 B2 B2 GA X-B2

>  <atom.prop.environment>  (24) 
4 4 4 4 4 5 5 5 5 5 5 5 5 5 5 5 5 5 5 16 16 16 16 16 16 16 16 16 16 na na

$$$$
3w2r_altA_chainA
     RDKit          3D

 24 24  0  0  0  0  0  0  0  0999 V2000
    7.4978   21.0282   32.6329 C   0  0  0  0  0  0  0  0  0  0  0  0
   12.0253   20.7565   29.7756 C   0  0  0  0  0  0  0  0  0  0  0  0
   11.9731   21.6450   29.1463 H   0  0  0  0  0  0  0  0  0  0  0  0
   12.9931   20.2731   29.6422 H   0  0  0  0  0  0  0  0  0  0  0  0
   10.9353   19.8004   29.3722 C   0  0  0  0  0  0  0  0  0  0  0  0
   11.0200   18.8828   29.9545 H   0  0  0  0  0  0  0  0  0  0  0  0
   11.0276   19.5673   28.3114 H   0  0  0  0  0  0  0  0  0  0  0  0
   11.8669   21.1688   31.2418 C   0  0  0  0  0  0  0  0  0  0  0  0
   12.6367   21.8987   31.4923 H   0  0  0  0  0  0  0  0  0  0  0  0
   11.9813   20.2885   31.8743 H   0  0  0  0  0  0  0  0  0  0  0  0
    9.5890   20.4476   29.6356 C   0  0  0  0  0  0  0  0  0  0  0  0
    8.7961   19.7620   29.3365 H   0  0  0  0  0  0  0  0  0  0  0  0
    9.5126   21.3669   29.0550 H   0  0  0  0  0  0  0  0  0  0  0  0
   10.5022   21.7824   31.4873 C   0  0  0  0  0  0  0  0  0  0  0  0
   10.3891   22.6800   30.8793 H   0  0  0  0  0  0  0  0  0  0  0  0
   10.4012   22.0422   32.5410 H   0  0  0  0  0  0  0  0  0  0  0  0
    9.4392   20.7727   31.1075 C   0  0  0  0  0  0  0  0  0  0  0  0
    9.5820   19.8711   31.7032 H   0  0  0  0  0  0  0  0  0  0  0  0
    6.2098   21.5314   32.6472 N   0  0  0  0  0  0  0  0  0  0  0  0
    5.8489   21.8323   31.7532 H   0  0  0  0  0  0  0  0  0  0  0  0
    8.0976   21.2404   31.4118 N   0  0  0  0  0  0  0  0  0  0  0  0
    7.5849   21.7408   30.6998 H   0  0  0  0  0  0  0  0  0  0  0  0
    8.0401   20.3936   33.5209 O   0  0  0  0  0  0  0  0  0  0  0  0
    5.3324   21.6812   33.7401 *   0  0  0  0  0  0  0  0  0  0  0  0
  1 19  1  0
  1 21  1  0
  1 23  2  0
  2  3  1  0
  2  4  1  0
  2  5  1  0
  2  8  1  0
  5  6  1  0
  5  7  1  0
  5 11  1  0
  8  9  1  0
  8 10  1  0
  8 14  1  0
 11 12  1  0
 11 13  1  0
 11 17  1  0
 14 15  1  0
 14 16  1  0
 14 17  1  0
 17 18  1  0
 17 21  1  0
 19 20  1  0
 21 22  1  0
 19 24  1  0
V   24 *
M  END
>  <kinase>  (25) 
EGFR

>  <family>  (25) 
EGFR

>  <group>  (25) 
TK

>  <complex_pdb>  (25) 
3w2r

>  <ligand_pdb>  (25) 
W2R

>  <alt>  (25) 
A

>  <chain>  (25) 
A

>  <atom.prop.subpocket>  (25) 
B2 B2 B2 B2 B2 B2 B2 B2 B2 B2 B2 B2 B2 B2 B2 B2 B2 B2 B2 B2 B2 B2 B2 B1

>  <atom.prop.environment>  (25) 
1 15 15 15 15 15 15 15 15 15 15 15 15 15 15 15 15 15 5 5 5 5 1 na

$$$$
4ksp_chainB
     RDKit          3D

 12 12  0  0  0  0  0  0  0  0999 V2000
   -1.1406   23.4704   29.4493 C   0  0  0  0  0  0  0  0  0  0  0  0
   -2.0007   23.3123   28.8154 H   0  0  0  0  0  0  0  0  0  0  0  0
   -1.2050   24.3626   30.4987 C   0  0  0  0  0  0  0  0  0  0  0  0
    0.0329   22.7807   29.2157 C   0  0  0  0  0  0  0  0  0  0  0  0
    0.0890   22.0774   28.3980 H   0  0  0  0  0  0  0  0  0  0  0  0
    1.1352   22.9858   30.0223 C   0  0  0  0  0  0  0  0  0  0  0  0
    2.0521   22.4495   29.8274 H   0  0  0  0  0  0  0  0  0  0  0  0
   -0.1046   24.5614   31.3039 C   0  0  0  0  0  0  0  0  0  0  0  0
   -0.1628   25.2639   32.1222 H   0  0  0  0  0  0  0  0  0  0  0  0
    1.0686   23.8757   31.0788 C   0  0  0  0  0  0  0  0  0  0  0  0
    2.2582   24.1293   31.9661 *   0  0  0  0  0  0  0  0  0  0  0  0
   -2.4497   25.1232   30.7822 *   0  0  0  0  0  0  0  0  0  0  0  0
  1  2  1  0
  1  3  2  0
  1  4  1  0
  3  8  1  0
  4  5  1  0
  4  6  2  0
  6  7  1  0
  6 10  1  0
  8  9  1  0
  8 10  2  0
 10 11  1  0
  3 12  1  0
V   11 *
V   12 *
M  END
>  <kinase>  (26) 
BRAF

>  <family>  (26) 
RAF

>  <group>  (26) 
TKL

>  <complex_pdb>  (26) 
4ksp

>  <ligand_pdb>  (26) 
1SU

>  <alt>  (26) 
 

>  <chain>  (26) 
B

>  <atom.prop.subpocket>  (26) 
B2 B2 B2 B2 B2 B2 B2 B2 B2 B2 B1 B1

>  <atom.prop.environment>  (26) 
16 16 16 16 16 16 16 16 16 16 na na

$$$$
4fc0_chainB
     RDKit          3D

 12 12  0  0  0  0  0  0  0  0999 V2000
    2.1436   23.8322   32.4324 C   0  0  0  0  0  0  0  0  0  0  0  0
    3.1063   23.5010   31.4694 C   0  0  0  0  0  0  0  0  0  0  0  0
    4.0226   23.0127   31.7667 H   0  0  0  0  0  0  0  0  0  0  0  0
    2.8820   23.8000   30.1378 C   0  0  0  0  0  0  0  0  0  0  0  0
    3.6235   23.5419   29.3962 H   0  0  0  0  0  0  0  0  0  0  0  0
    1.7054   24.4317   29.7500 C   0  0  0  0  0  0  0  0  0  0  0  0
    1.5445   24.6764   28.7105 H   0  0  0  0  0  0  0  0  0  0  0  0
    0.7326   24.7506   30.6963 C   0  0  0  0  0  0  0  0  0  0  0  0
    0.9597   24.4657   32.0318 C   0  0  0  0  0  0  0  0  0  0  0  0
   -0.2770   24.8955   33.1766 Cl  0  0  0  0  0  0  0  0  0  0  0  0
   -0.4289   25.3994   30.3735 *   0  0  0  0  0  0  0  0  0  0  0  0
    2.3613   23.5215   33.8627 *   0  0  0  0  0  0  0  0  0  0  0  0
  1  2  2  0
  1  9  1  0
  2  3  1  0
  2  4  1  0
  4  5  1  0
  4  6  2  0
  6  7  1  0
  6  8  1  0
  8  9  2  0
  9 10  1  0
  8 11  1  0
  1 12  1  0
V   11 *
V   12 *
M  END
>  <kinase>  (27) 
BRAF

>  <family>  (27) 
RAF

>  <group>  (27) 
TKL

>  <complex_pdb>  (27) 
4fc0

>  <ligand_pdb>  (27) 
0T2

>  <alt>  (27) 
 

>  <chain>  (27) 
B

>  <atom.prop.subpocket>  (27) 
B2 B2 B2 B2 B2 B2 B2 B2 B2 B2 B1 GA

>  <atom.prop.environment>  (27) 
16 16 16 16 16 16 16 16 16 16 na na

$$$$
4uyn_chainA
     RDKit          3D

 15 16  0  0  0  0  0  0  0  0999 V2000
    5.3976   22.0038   36.0281 C   0  0  0  0  0  0  0  0  0  0  0  0
    5.8409   23.0642   35.3510 N   0  0  0  0  0  0  0  0  0  0  0  0
    7.0946   22.7030   34.9956 C   0  0  0  0  0  0  0  0  0  0  0  0
    8.0670   23.3553   34.2503 C   0  0  0  0  0  0  0  0  0  0  0  0
    7.8861   24.3501   33.8708 H   0  0  0  0  0  0  0  0  0  0  0  0
    9.2784   22.7158   33.9960 C   0  0  0  0  0  0  0  0  0  0  0  0
   10.0307   23.2146   33.4030 H   0  0  0  0  0  0  0  0  0  0  0  0
    9.5313   21.4398   34.4978 C   0  0  0  0  0  0  0  0  0  0  0  0
   10.4732   20.9550   34.2877 H   0  0  0  0  0  0  0  0  0  0  0  0
    8.5779   20.7933   35.2644 C   0  0  0  0  0  0  0  0  0  0  0  0
    8.7793   19.8149   35.6751 H   0  0  0  0  0  0  0  0  0  0  0  0
    7.3530   21.4191   35.5011 C   0  0  0  0  0  0  0  0  0  0  0  0
    6.2625   20.9963   36.1580 N   0  0  0  0  0  0  0  0  0  0  0  0
    6.1274   20.1186   36.6392 H   0  0  0  0  0  0  0  0  0  0  0  0
    3.7909   21.8590   36.6814 *   0  0  0  0  0  0  0  0  0  0  0  0
  1  2  2  0
  1 13  1  0
  2  3  1  0
  3  4  2  0
  3 12  1  0
  4  5  1  0
  4  6  1  0
  6  7  1  0
  6  8  2  0
  8  9  1  0
  8 10  1  0
 10 11  1  0
 10 12  2  0
 12 13  1  0
 13 14  1  0
  1 15  1  0
V   15 *
M  END
>  <kinase>  (28) 
AurA

>  <family>  (28) 
Aur

>  <group>  (28) 
Other

>  <complex_pdb>  (28) 
4uyn

>  <ligand_pdb>  (28) 
Y3M

>  <alt>  (28) 
 

>  <chain>  (28) 
A

>  <atom.prop.subpocket>  (28) 
B2 B2 B2 B2 B2 B2 B2 B2 B2 B2 B2 B2 B2 B2 GA

>  <atom.prop.environment>  (28) 
14 14 14 14 14 14 14 14 14 14 14 14 14 14 na

$$$$
4joa_altA_chainA
     RDKit          3D

 12 12  0  0  0  0  0  0  0  0999 V2000
    8.6096   18.9702   35.9932 F   0  0  0  0  0  0  0  0  0  0  0  0
    7.5607   19.7241   36.3682 C   0  0  0  0  0  0  0  0  0  0  0  0
    6.3353   19.1202   36.6460 C   0  0  0  0  0  0  0  0  0  0  0  0
    6.2313   18.0492   36.5537 H   0  0  0  0  0  0  0  0  0  0  0  0
    7.6968   21.1061   36.4726 C   0  0  0  0  0  0  0  0  0  0  0  0
    8.6446   21.5757   36.2548 H   0  0  0  0  0  0  0  0  0  0  0  0
    6.6063   21.8792   36.8587 C   0  0  0  0  0  0  0  0  0  0  0  0
    6.7084   22.9510   36.9431 H   0  0  0  0  0  0  0  0  0  0  0  0
    5.3810   21.2724   37.1371 C   0  0  0  0  0  0  0  0  0  0  0  0
    4.3362   22.0363   37.5058 F   0  0  0  0  0  0  0  0  0  0  0  0
    5.2430   19.8913   37.0425 C   0  0  0  0  0  0  0  0  0  0  0  0
    3.9153   19.2119   37.3203 *   0  0  0  0  0  0  0  0  0  0  0  0
  1  2  1  0
  2  3  2  0
  2  5  1  0
  3  4  1  0
  3 11  1  0
  5  6  1  0
  5  7  2  0
  7  8  1  0
  7  9  1  0
  9 10  1  0
  9 11  2  0
 11 12  1  0
V   12 *
M  END
>  <kinase>  (29) 
ALK

>  <family>  (29) 
ALK

>  <group>  (29) 
TK

>  <complex_pdb>  (29) 
4joa

>  <ligand_pdb>  (29) 
3DK

>  <alt>  (29) 
A

>  <chain>  (29) 
A

>  <atom.prop.subpocket>  (29) 
B2 B2 B2 B2 B2 B2 B2 B2 B2 B2 B2 GA

>  <atom.prop.environment>  (29) 
16 16 16 16 16 16 16 16 16 16 16 na

$$$$
4fnz_chainA
     RDKit          3D

  6  5  0  0  0  0  0  0  0  0999 V2000
    0.8504   23.6346   32.7207 O   0  0  0  0  0  0  0  0  0  0  0  0
   -0.2857   22.9372   32.2905 C   0  0  0  0  0  0  0  0  0  0  0  0
   -1.3709   23.4371   32.8851 F   0  0  0  0  0  0  0  0  0  0  0  0
   -0.3305   23.1950   30.9821 F   0  0  0  0  0  0  0  0  0  0  0  0
   -0.1590   21.6056   32.5215 F   0  0  0  0  0  0  0  0  0  0  0  0
    1.2022   23.4996   34.0210 *   0  0  0  0  0  0  0  0  0  0  0  0
  1  2  1  0
  2  3  1  0
  2  4  1  0
  2  5  1  0
  1  6  1  0
V    6 *
M  END
>  <kinase>  (30) 
ALK

>  <family>  (30) 
ALK

>  <group>  (30) 
TK

>  <complex_pdb>  (30) 
4fnz

>  <ligand_pdb>  (30) 
NZF

>  <alt>  (30) 
 

>  <chain>  (30) 
A

>  <atom.prop.subpocket>  (30) 
B2 B2 B2 B2 B2 B1

>  <atom.prop.environment>  (30) 
3 3 3 3 3 na

$$$$
