Henatinib
     RDKit          2D

 34 38  0  0  0  0  0  0  0  0999 V2000
    1.2445   -2.8037    0.0000 C   0  0  0  0  0  0  0  0  0  0  0  0
    1.2210   -1.3039    0.0000 C   0  0  0  0  0  0  0  0  0  0  0  0
    2.4206   -0.4033    0.0000 C   0  0  0  0  0  0  0  0  0  0  0  0
    1.9347    1.0159    0.0000 N   0  0  0  0  0  0  0  0  0  0  0  0
    0.4349    0.9924    0.0000 C   0  0  0  0  0  0  0  0  0  0  0  0
   -0.0062   -0.4413    0.0000 C   0  0  0  0  0  0  0  0  0  0  0  0
   -1.4021   -0.9903    0.0000 C   0  0  0  0  0  0  0  0  0  0  0  0
   -1.5131   -2.4862    0.0000 O   0  0  0  0  0  0  0  0  0  0  0  0
   -2.7017   -0.2412    0.0000 N   0  0  0  0  0  0  0  0  0  0  0  0
   -2.9263    1.2418    0.0000 C   0  0  0  0  0  0  0  0  0  0  0  0
   -1.9068    2.3421    0.0000 C   0  0  0  0  0  0  0  0  0  0  0  0
   -0.4109    2.2311    0.0000 C   0  0  0  0  0  0  0  0  0  0  0  0
   -3.9404   -1.0871    0.0000 C   0  0  0  0  0  0  0  0  0  0  0  0
   -5.2924   -0.4373    0.0000 C   0  0  0  0  0  0  0  0  0  0  0  0
   -6.5311   -1.2831    0.0000 C   0  0  0  0  0  0  0  0  0  0  0  0
   -7.8830   -0.6333    0.0000 N   0  0  0  0  0  0  0  0  0  0  0  0
   -7.9962    0.8625    0.0000 C   0  0  0  0  0  0  0  0  0  0  0  0
   -9.3481    1.5123    0.0000 C   0  0  0  0  0  0  0  0  0  0  0  0
  -10.5869    0.6665    0.0000 O   0  0  0  0  0  0  0  0  0  0  0  0
  -10.4737   -0.8293    0.0000 C   0  0  0  0  0  0  0  0  0  0  0  0
   -9.1218   -1.4791    0.0000 C   0  0  0  0  0  0  0  0  0  0  0  0
   -5.4055    1.0585    0.0000 O   0  0  0  0  0  0  0  0  0  0  0  0
    3.8542   -0.8444    0.0000 C   0  0  0  0  0  0  0  0  0  0  0  0
    4.9531    0.1767    0.0000 C   0  0  0  0  0  0  0  0  0  0  0  0
    6.4250   -0.1122    0.0000 C   0  0  0  0  0  0  0  0  0  0  0  0
    7.1953   -1.3993    0.0000 C   0  0  0  0  0  0  0  0  0  0  0  0
    8.6951   -1.3758    0.0000 C   0  0  0  0  0  0  0  0  0  0  0  0
    9.4247   -0.0651    0.0000 C   0  0  0  0  0  0  0  0  0  0  0  0
    8.6544    1.2220    0.0000 C   0  0  0  0  0  0  0  0  0  0  0  0
    7.1546    1.1985    0.0000 C   0  0  0  0  0  0  0  0  0  0  0  0
    6.1335    2.2973    0.0000 N   0  0  0  0  0  0  0  0  0  0  0  0
    4.7729    1.6658    0.0000 C   0  0  0  0  0  0  0  0  0  0  0  0
    3.4623    2.3954    0.0000 O   0  0  0  0  0  0  0  0  0  0  0  0
    9.4654   -2.6629    0.0000 F   0  0  0  0  0  0  0  0  0  0  0  0
  1  2  1  0
  2  3  2  0
  3  4  1  0
  4  5  1  0
  5  6  2  0
  6  7  1  0
  7  8  2  0
  7  9  1  0
  9 10  1  0
 10 11  1  0
 11 12  1  0
  9 13  1  0
 13 14  1  0
 14 15  1  0
 15 16  1  0
 16 17  1  0
 17 18  1  0
 18 19  1  0
 19 20  1  0
 20 21  1  0
 14 22  1  1
  3 23  1  0
 23 24  2  0
 24 25  1  0
 25 26  2  0
 26 27  1  0
 27 28  2  0
 28 29  1  0
 29 30  2  0
 30 31  1  0
 31 32  1  0
 32 33  2  0
 27 34  1  0
  6  2  1  0
 12  5  1  0
 21 16  1  0
 32 24  1  0
 30 25  1  0
M  END
>  <BrandName>  (1) 


>  <Applicants>  (1) 
Jiangsu Hengrui Medicine

>  <CHEMBL_ID>  (1) 
CHEMBL1277072

>  <Canonical_Smiles>  (1) 
Cc1c([nH]c2c1C(=O)N(CCC2)C[C@@H](CN3CCOCC3)O)/C=C\4/c5cc(ccc5NC4=O)F

>  <Chirality>  (1) 
Single Stereoisomer

>  <First_Approval>  (1) 
nan

>  <Phase>  (1) 
1.0

>  <SC_Patent>  (1) 
nan

>  <Synonyms>  (1) 
HENATINIB

>  <Withdrawn>  (1) 
nan

>  <Indications>  (1) 
nan

>  <Type>  (1) 
nan

>  <targets_id>  (1) 
P35968

>  <Inchi>  (1) 
InChI=1S/C25H29FN4O4/c1-15-22(12-19-18-11-16(26)4-5-20(18)28-24(19)32)27-21-3-2-6-30(25(33)23(15)21)14-17(31)13-29-7-9-34-10-8-29/h4-5,11-12,17,27,31H,2-3,6-10,13-14H2,1H3,(H,28,32)/b19-12-/t17-/m1/s1

>  <stdInchikey>  (1) 
MCTXSDCWFQAGFS-UEXNTNOUSA-N

>  <csid>  (1) 
26354883

>  <Links>  (1) 
|http://www.chemspider.com/Chemical-Structure.26354883.html|https://www.ebi.ac.uk/chembldb/compound/inspect/CHEMBL1277072|https://pubchem.ncbi.nlm.nih.gov/compound/25116064|https://go.drugbank.com/drugs/DB13019|https://www.guidetopharmacology.org/GRAC/LigandDisplayForward?9930|https://precision.fda.gov/uniisearch/srs/unii/TE20GB753F|https://www.bindingdb.org/bind/chemsearch/marvin/MolStructure.jsp?monomerid=50331032

>  <LinkName>  (1) 
|ChemSpider|ChEMBL|PubChem|DrugBank|Guide to Pharmacology|FDA SRS|BindingDB

>  <lig_pdb_ID>  (1) 


>  <pdb_IDs>  (1) 


>  <indicationDB>  (1) 


>  <uniprotId>  (1) 


>  <indicationG2P>  (1) 
None

>  <MW>  (1) 
468.2

>  <HBA>  (1) 
5

>  <HBD>  (1) 
3

>  <NRB>  (1) 
5

>  <TPSA>  (1) 
97.9

>  <LogP>  (1) 
2.0

>  <RoF>  (1) 
0

>  <Melting point>  (1) 
nan

>  <Targets>  (1) 
KDR

>  <Kinase families>  (1) 
Tyr

>  <FDA_approved>  (1) 


$$$$
Ilunocitinib
     RDKit          2D

 27 31  0  0  0  0  0  0  0  0999 V2000
   -4.9349   -0.6774    0.0000 N   0  0  0  0  0  0  0  0  0  0  0  0
   -3.5130   -0.1999    0.0000 C   0  0  0  0  0  0  0  0  0  0  0  0
   -2.0177   -0.0806    0.0000 C   0  0  0  0  0  0  0  0  0  0  0  0
   -1.3734    1.2740    0.0000 C   0  0  0  0  0  0  0  0  0  0  0  0
   -2.0177   -0.0806    0.0000 C   0  0  0  0  0  0  0  0  0  0  0  0
   -3.3723    0.5637    0.0000 N   0  0  0  0  0  0  0  0  0  0  0  0
   -2.7280    1.9183    0.0000 C   0  0  0  0  0  0  0  0  0  0  0  0
   -4.7857    0.0615    0.0000 S   0  0  0  0  0  0  0  0  0  0  0  0
   -4.2835   -1.3519    0.0000 O   0  0  0  0  0  0  0  0  0  0  0  0
   -5.2879    1.4750    0.0000 O   0  0  0  0  0  0  0  0  0  0  0  0
   -6.1992   -0.4407    0.0000 C   0  0  0  0  0  0  0  0  0  0  0  0
   -7.1721   -1.5823    0.0000 C   0  0  0  0  0  0  0  0  0  0  0  0
   -7.6743   -0.1689    0.0000 C   0  0  0  0  0  0  0  0  0  0  0  0
   -0.0188    0.6296    0.0000 N   0  0  0  0  0  0  0  0  0  0  0  0
    1.2986    1.3468    0.0000 C   0  0  0  0  0  0  0  0  0  0  0  0
    2.3878    0.3154    0.0000 C   0  0  0  0  0  0  0  0  0  0  0  0
    1.7434   -1.0392    0.0000 C   0  0  0  0  0  0  0  0  0  0  0  0
    0.2561   -0.8449    0.0000 N   0  0  0  0  0  0  0  0  0  0  0  0
    3.8624    0.5903    0.0000 C   0  0  0  0  0  0  0  0  0  0  0  0
    4.3616    2.0048    0.0000 N   0  0  0  0  0  0  0  0  0  0  0  0
    5.8362    2.2797    0.0000 C   0  0  0  0  0  0  0  0  0  0  0  0
    6.8116    1.1401    0.0000 N   0  0  0  0  0  0  0  0  0  0  0  0
    6.3123   -0.2744    0.0000 C   0  0  0  0  0  0  0  0  0  0  0  0
    7.0295   -1.5918    0.0000 N   0  0  0  0  0  0  0  0  0  0  0  0
    5.9981   -2.6810    0.0000 C   0  0  0  0  0  0  0  0  0  0  0  0
    4.6435   -2.0366    0.0000 C   0  0  0  0  0  0  0  0  0  0  0  0
    4.8377   -0.5493    0.0000 C   0  0  0  0  0  0  0  0  0  0  0  0
  1  2  3  0
  2  3  1  0
  3  4  1  0
  4  5  1  0
  5  6  1  0
  6  7  1  0
  6  8  1  0
  8  9  2  0
  8 10  2  0
  8 11  1  0
 11 12  1  0
 12 13  1  0
  4 14  1  0
 14 15  1  0
 15 16  2  0
 16 17  1  0
 17 18  2  0
 16 19  1  0
 19 20  2  0
 20 21  1  0
 21 22  2  0
 22 23  1  0
 23 24  1  0
 24 25  1  0
 25 26  2  0
 26 27  1  0
  7  4  1  0
 13 11  1  0
 18 14  1  0
 27 19  1  0
 27 23  2  0
M  END
>  <BrandName>  (2) 


>  <Applicants>  (2) 
Elanco Animal Health

>  <CHEMBL_ID>  (2) 
CHEMBL4802241

>  <Canonical_Smiles>  (2) 
N#CCC1(CN(C1)S(=O)(=O)C1CC1)N1C=C(C=N1)C1N=CN=C2NC=CC=12

>  <Chirality>  (2) 
Achiral Molecule

>  <First_Approval>  (2) 
nan

>  <Phase>  (2) 
1.0

>  <SC_Patent>  (2) 
nan

>  <Synonyms>  (2) 
ILUNOCITINIB | LY-3411067 | LY3411067

>  <Withdrawn>  (2) 
nan

>  <Indications>  (2) 
nan

>  <Type>  (2) 
nan

>  <targets_id>  (2) 
nan

>  <Inchi>  (2) 
InChI=1S/C17H17N7O2S/c18-5-4-17(9-23(10-17)27(25,26)13-1-2-13)24-8-12(7-22-24)15-14-3-6-19-16(14)21-11-20-15/h3,6-8,11,13H,1-2,4,9-10H2,(H,19,20,21)

>  <stdInchikey>  (2) 
RVOUEXFKIYNODQ-UHFFFAOYSA-N

>  <csid>  (2) 
115006748

>  <Links>  (2) 
|http://www.chemspider.com/Chemical-Structure.115006748.html|https://www.ebi.ac.uk/chembldb/compound/inspect/CHEMBL4802241|https://pubchem.ncbi.nlm.nih.gov/compound/44231134|https://precision.fda.gov/uniisearch/srs/unii/N3TB5AH8B9

>  <LinkName>  (2) 
|ChemSpider|ChEMBL|PubChem|FDA SRS

>  <lig_pdb_ID>  (2) 


>  <pdb_IDs>  (2) 


>  <indicationDB>  (2) 


>  <uniprotId>  (2) 


>  <indicationG2P>  (2) 


>  <MW>  (2) 
383.1

>  <HBA>  (2) 
7

>  <HBD>  (2) 
1

>  <NRB>  (2) 
5

>  <TPSA>  (2) 
120.6

>  <LogP>  (2) 
1.2

>  <RoF>  (2) 
0

>  <Melting point>  (2) 
nan

>  <Targets>  (2) 
nan

>  <Kinase families>  (2) 


>  <FDA_approved>  (2) 


$$$$
Vevorisertib
     RDKit          2D

 44 50  0  0  0  0  0  0  0  0999 V2000
  -11.2669    1.0724    0.0000 C   0  0  0  0  0  0  0  0  0  0  0  0
  -10.2298   -0.0112    0.0000 N   0  0  0  0  0  0  0  0  0  0  0  0
   -8.7727    0.3452    0.0000 C   0  0  0  0  0  0  0  0  0  0  0  0
   -8.3528    1.7852    0.0000 C   0  0  0  0  0  0  0  0  0  0  0  0
   -6.8958    2.1416    0.0000 C   0  0  0  0  0  0  0  0  0  0  0  0
   -5.8586    1.0580    0.0000 N   0  0  0  0  0  0  0  0  0  0  0  0
   -6.2785   -0.3821    0.0000 C   0  0  0  0  0  0  0  0  0  0  0  0
   -7.7355   -0.7385    0.0000 C   0  0  0  0  0  0  0  0  0  0  0  0
   -4.4016    1.4144    0.0000 C   0  0  0  0  0  0  0  0  0  0  0  0
   -3.3644    0.3307    0.0000 C   0  0  0  0  0  0  0  0  0  0  0  0
   -1.9074    0.6871    0.0000 C   0  0  0  0  0  0  0  0  0  0  0  0
   -1.4875    2.1271    0.0000 C   0  0  0  0  0  0  0  0  0  0  0  0
   -2.5246    3.2108    0.0000 C   0  0  0  0  0  0  0  0  0  0  0  0
   -3.9817    2.8544    0.0000 C   0  0  0  0  0  0  0  0  0  0  0  0
   -0.8702   -0.3965    0.0000 C   0  0  0  0  0  0  0  0  0  0  0  0
   -1.2901   -1.8366    0.0000 C   0  0  0  0  0  0  0  0  0  0  0  0
   -0.2529   -2.9202    0.0000 C   0  0  0  0  0  0  0  0  0  0  0  0
    1.2041   -2.5638    0.0000 C   0  0  0  0  0  0  0  0  0  0  0  0
    2.4439   -3.4082    0.0000 N   0  0  0  0  0  0  0  0  0  0  0  0
    3.6301   -2.4899    0.0000 C   0  0  0  0  0  0  0  0  0  0  0  0
    5.0701   -2.9098    0.0000 C   0  0  0  0  0  0  0  0  0  0  0  0
    6.1537   -1.8727    0.0000 C   0  0  0  0  0  0  0  0  0  0  0  0
    7.5938   -2.2925    0.0000 C   0  0  0  0  0  0  0  0  0  0  0  0
    7.9502   -3.7496    0.0000 C   0  0  0  0  0  0  0  0  0  0  0  0
    6.8665   -4.7868    0.0000 N   0  0  0  0  0  0  0  0  0  0  0  0
    5.4265   -4.3669    0.0000 C   0  0  0  0  0  0  0  0  0  0  0  0
    4.3428   -5.4040    0.0000 N   0  0  0  0  0  0  0  0  0  0  0  0
    3.1233   -1.0781    0.0000 N   0  0  0  0  0  0  0  0  0  0  0  0
    1.6240   -1.1238    0.0000 C   0  0  0  0  0  0  0  0  0  0  0  0
    0.5869   -0.0402    0.0000 N   0  0  0  0  0  0  0  0  0  0  0  0
    3.9677    0.1617    0.0000 C   0  0  0  0  0  0  0  0  0  0  0  0
    3.3161    1.5128    0.0000 C   0  0  0  0  0  0  0  0  0  0  0  0
    4.1604    2.7526    0.0000 C   0  0  0  0  0  0  0  0  0  0  0  0
    5.6563    2.6413    0.0000 C   0  0  0  0  0  0  0  0  0  0  0  0
    6.3078    1.2902    0.0000 C   0  0  0  0  0  0  0  0  0  0  0  0
    5.4635    0.0504    0.0000 C   0  0  0  0  0  0  0  0  0  0  0  0
    6.5006    3.8811    0.0000 C   0  0  0  0  0  0  0  0  0  0  0  0
    7.7404    3.0368    0.0000 N   0  0  0  0  0  0  0  0  0  0  0  0
    5.2608    4.7254    0.0000 C   0  0  0  0  0  0  0  0  0  0  0  0
    6.1051    5.9652    0.0000 C   0  0  0  0  0  0  0  0  0  0  0  0
    7.3450    5.1209    0.0000 C   0  0  0  0  0  0  0  0  0  0  0  0
  -10.6496   -1.4512    0.0000 C   0  0  0  0  0  0  0  0  0  0  0  0
  -12.1067   -1.8076    0.0000 C   0  0  0  0  0  0  0  0  0  0  0  0
   -9.6125   -2.5349    0.0000 O   0  0  0  0  0  0  0  0  0  0  0  0
  1  2  1  0
  2  3  1  0
  3  4  1  0
  4  5  1  0
  5  6  1  0
  6  7  1  0
  7  8  1  0
  6  9  1  0
  9 10  2  0
 10 11  1  0
 11 12  2  0
 12 13  1  0
 13 14  2  0
 11 15  1  0
 15 16  2  0
 16 17  1  0
 17 18  2  0
 18 19  1  0
 19 20  2  0
 20 21  1  0
 21 22  2  0
 22 23  1  0
 23 24  2  0
 24 25  1  0
 25 26  2  0
 26 27  1  0
 20 28  1  0
 28 29  1  0
 29 30  2  0
 28 31  1  0
 31 32  2  0
 32 33  1  0
 33 34  2  0
 34 35  1  0
 35 36  2  0
 34 37  1  0
 37 38  1  0
 37 39  1  0
 39 40  1  0
 40 41  1  0
  2 42  1  0
 42 43  1  0
 42 44  2  0
  8  3  1  0
 14  9  1  0
 30 15  1  0
 36 31  1  0
 41 37  1  0
 29 18  1  0
 26 21  1  0
M  END
>  <BrandName>  (3) 


>  <Applicants>  (3) 
ArQule

>  <CHEMBL_ID>  (3) 
CHEMBL4802156

>  <Canonical_Smiles>  (3) 
CN(C1CCN(CC1)C1C=C(C=CC=1)C1=CC=C2N=C(C3C=CC=NC=3N)N(C2=N1)C1C=CC(=CC=1)C1(N)CCC1)C(C)=O

>  <Chirality>  (3) 
Achiral Molecule

>  <First_Approval>  (3) 
nan

>  <Phase>  (3) 
1.0

>  <SC_Patent>  (3) 
nan

>  <Synonyms>  (3) 
VEVORISERTIB

>  <Withdrawn>  (3) 
nan

>  <Indications>  (3) 
nan

>  <Type>  (3) 
nan

>  <targets_id>  (3) 
nan

>  <Inchi>  (3) 
InChI=1S/C35H38N8O/c1-23(44)41(2)26-15-20-42(21-16-26)28-7-3-6-24(22-28)30-13-14-31-34(39-30)43(33(40-31)29-8-4-19-38-32(29)36)27-11-9-25(10-12-27)35(37)17-5-18-35/h3-4,6-14,19,22,26H,5,15-18,20-21,37H2,1-2H3,(H2,36,38)

>  <stdInchikey>  (3) 
NZDSLYATTDIDPH-UHFFFAOYSA-N

>  <csid>  (3) 
115006931

>  <Links>  (3) 
|http://www.chemspider.com/Chemical-Structure.115006931.html|https://www.ebi.ac.uk/chembldb/compound/inspect/CHEMBL4802156|https://pubchem.ncbi.nlm.nih.gov/compound/71138858|https://precision.fda.gov/uniisearch/srs/unii/V6SX910Y31

>  <LinkName>  (3) 
|ChemSpider|ChEMBL|PubChem|FDA SRS

>  <lig_pdb_ID>  (3) 


>  <pdb_IDs>  (3) 


>  <indicationDB>  (3) 


>  <uniprotId>  (3) 


>  <indicationG2P>  (3) 


>  <MW>  (3) 
586.3

>  <HBA>  (3) 
8

>  <HBD>  (3) 
2

>  <NRB>  (3) 
6

>  <TPSA>  (3) 
119.2

>  <LogP>  (3) 
5.5

>  <RoF>  (3) 
2

>  <Melting point>  (3) 
nan

>  <Targets>  (3) 
nan

>  <Kinase families>  (3) 


>  <FDA_approved>  (3) 


$$$$
Epitinib
     RDKit          2D

 32 35  0  0  0  0  0  0  0  0999 V2000
   -9.9084   -2.2421    0.0000 C   0  0  0  0  0  0  0  0  0  0  0  0
   -8.5483   -2.8746    0.0000 C   0  0  0  0  0  0  0  0  0  0  0  0
   -7.3204   -2.0129    0.0000 N   0  0  0  0  0  0  0  0  0  0  0  0
   -7.4528   -0.5188    0.0000 C   0  0  0  0  0  0  0  0  0  0  0  0
   -6.2249    0.3429    0.0000 C   0  0  0  0  0  0  0  0  0  0  0  0
   -4.8648   -0.2896    0.0000 N   0  0  0  0  0  0  0  0  0  0  0  0
   -4.7325   -1.7838    0.0000 C   0  0  0  0  0  0  0  0  0  0  0  0
   -5.9603   -2.6454    0.0000 C   0  0  0  0  0  0  0  0  0  0  0  0
   -3.6370    0.5721    0.0000 C   0  0  0  0  0  0  0  0  0  0  0  0
   -3.7693    2.0662    0.0000 O   0  0  0  0  0  0  0  0  0  0  0  0
   -2.2769   -0.0604    0.0000 N   0  0  0  0  0  0  0  0  0  0  0  0
   -1.0490    0.8012    0.0000 C   0  0  0  0  0  0  0  0  0  0  0  0
   -1.1813    2.2954    0.0000 C   0  0  0  0  0  0  0  0  0  0  0  0
    0.0465    3.1570    0.0000 C   0  0  0  0  0  0  0  0  0  0  0  0
    1.4066    2.5245    0.0000 C   0  0  0  0  0  0  0  0  0  0  0  0
    1.5389    1.0304    0.0000 C   0  0  0  0  0  0  0  0  0  0  0  0
    0.3111    0.1687    0.0000 C   0  0  0  0  0  0  0  0  0  0  0  0
    2.8990    0.3979    0.0000 C   0  0  0  0  0  0  0  0  0  0  0  0
    4.1269    1.2595    0.0000 N   0  0  0  0  0  0  0  0  0  0  0  0
    3.9946    2.7537    0.0000 C   0  0  0  0  0  0  0  0  0  0  0  0
    2.6344    3.3862    0.0000 N   0  0  0  0  0  0  0  0  0  0  0  0
    3.0313   -1.0963    0.0000 N   0  0  0  0  0  0  0  0  0  0  0  0
    4.3915   -1.7288    0.0000 C   0  0  0  0  0  0  0  0  0  0  0  0
    4.5238   -3.2229    0.0000 C   0  0  0  0  0  0  0  0  0  0  0  0
    5.8839   -3.8554    0.0000 C   0  0  0  0  0  0  0  0  0  0  0  0
    7.1117   -2.9937    0.0000 C   0  0  0  0  0  0  0  0  0  0  0  0
    6.9794   -1.4996    0.0000 C   0  0  0  0  0  0  0  0  0  0  0  0
    5.6193   -0.8671    0.0000 C   0  0  0  0  0  0  0  0  0  0  0  0
    8.2072   -0.6379    0.0000 C   0  0  0  0  0  0  0  0  0  0  0  0
    9.4351    0.2237    0.0000 C   0  0  0  0  0  0  0  0  0  0  0  0
   -2.5415    2.9279    0.0000 O   0  0  0  0  0  0  0  0  0  0  0  0
   -2.6738    4.4220    0.0000 C   0  0  0  0  0  0  0  0  0  0  0  0
  1  2  1  0
  2  3  1  0
  3  4  1  0
  4  5  1  0
  5  6  1  0
  6  7  1  0
  7  8  1  0
  6  9  1  0
  9 10  2  0
  9 11  1  0
 11 12  1  0
 12 13  2  0
 13 14  1  0
 14 15  2  0
 15 16  1  0
 16 17  2  0
 16 18  1  0
 18 19  2  0
 19 20  1  0
 20 21  2  0
 18 22  1  0
 22 23  1  0
 23 24  2  0
 24 25  1  0
 25 26  2  0
 26 27  1  0
 27 28  2  0
 27 29  1  0
 29 30  3  0
 13 31  1  0
 31 32  1  0
  8  3  1  0
 17 12  1  0
 21 15  1  0
 28 23  1  0
M  END
>  <BrandName>  (4) 


>  <Applicants>  (4) 
Hutchison MediPharma

>  <CHEMBL_ID>  (4) 
CHEMBL5314411

>  <Canonical_Smiles>  (4) 
CCN1CCN(CC1)C(=O)NC2=C(C=C3C(=C2)C(=NC=N3)NC4=CC=CC(=C4)C#C)OC CCN1CCN(CC1)C(=O)NC1=CC2=C(NC3C=C(C=CC=3)C#C)N=CN=C2C=C1OC

>  <Chirality>  (4) 
Achiral Molecule

>  <First_Approval>  (4) 
nan

>  <Phase>  (4) 
1.0

>  <SC_Patent>  (4) 
nan

>  <Synonyms>  (4) 
EPITINIB | HMPL-813

>  <Withdrawn>  (4) 
nan

>  <Indications>  (4) 
nan

>  <Type>  (4) 
nan

>  <targets_id>  (4) 
nan

>  <Inchi>  (4) 
InChI=1S/C24H26N6O2/c1-4-17-7-6-8-18(13-17)27-23-19-14-21(22(32-3)15-20(19)25-16-26-23)28-24(31)30-11-9-29(5-2)10-12-30/h1,6-8,13-16H,5,9-12H2,2-3H3,(H,28,31)(H,25,26,27)

>  <stdInchikey>  (4) 
DQAZPZIYEOGZAF-UHFFFAOYSA-N

>  <csid>  (4) 
107561648

>  <Links>  (4) 
|http://www.chemspider.com/Chemical-Structure.107561648.html|https://www.ebi.ac.uk/chembldb/compound/inspect/CHEMBL5314411|https://pubchem.ncbi.nlm.nih.gov/compound/59142777|https://zinc15.docking.org/substances/ZINC000202963740|https://precision.fda.gov/uniisearch/srs/unii/WZ97ZE4UUG

>  <LinkName>  (4) 
|ChemSpider|ChEMBL|PubChem|ZINC|FDA SRS

>  <lig_pdb_ID>  (4) 


>  <pdb_IDs>  (4) 


>  <indicationDB>  (4) 


>  <uniprotId>  (4) 


>  <indicationG2P>  (4) 


>  <MW>  (4) 
430.2

>  <HBA>  (4) 
6

>  <HBD>  (4) 
2

>  <NRB>  (4) 
5

>  <TPSA>  (4) 
82.6

>  <LogP>  (4) 
3.5

>  <RoF>  (4) 
0

>  <Melting point>  (4) 
nan

>  <Targets>  (4) 
nan

>  <Kinase families>  (4) 


>  <FDA_approved>  (4) 


$$$$
Atuzabrutinib
     RDKit          2D

 40 44  0  0  0  0  0  0  0  0999 V2000
   -8.9591   -3.9808    0.0000 C   0  0  0  0  0  0  0  0  0  0  0  0
   -8.9675   -2.4808    0.0000 C   0  0  0  0  0  0  0  0  0  0  0  0
   -8.9760   -0.9808    0.0000 C   0  0  0  0  0  0  0  0  0  0  0  0
  -10.4675   -2.4892    0.0000 C   0  0  0  0  0  0  0  0  0  0  0  0
   -7.4675   -2.4723    0.0000 C   0  0  0  0  0  0  0  0  0  0  0  0
   -6.7249   -1.1691    0.0000 C   0  0  0  0  0  0  0  0  0  0  0  0
   -7.4822    0.1257    0.0000 C   0  0  0  0  0  0  0  0  0  0  0  0
   -8.2395    1.4205    0.0000 N   0  0  0  0  0  0  0  0  0  0  0  0
   -5.2249   -1.1606    0.0000 C   0  0  0  0  0  0  0  0  0  0  0  0
   -4.4676   -2.4554    0.0000 O   0  0  0  0  0  0  0  0  0  0  0  0
   -4.4822    0.1426    0.0000 N   0  0  0  0  0  0  0  0  0  0  0  0
   -5.2396    1.4374    0.0000 C   0  0  0  0  0  0  0  0  0  0  0  0
   -4.4969    2.7407    0.0000 C   0  0  0  0  0  0  0  0  0  0  0  0
   -2.9969    2.7491    0.0000 C   0  0  0  0  0  0  0  0  0  0  0  0
   -2.2396    1.4543    0.0000 C   0  0  0  0  0  0  0  0  0  0  0  0
   -0.7396    1.4628    0.0000 N   0  0  0  0  0  0  0  0  0  0  0  0
    0.1489    0.2543    0.0000 N   0  0  0  0  0  0  0  0  0  0  0  0
    1.5728    0.7258    0.0000 C   0  0  0  0  0  0  0  0  0  0  0  0
    2.7913   -0.1490    0.0000 C   0  0  0  0  0  0  0  0  0  0  0  0
    4.1582    0.4688    0.0000 C   0  0  0  0  0  0  0  0  0  0  0  0
    5.3766   -0.4060    0.0000 C   0  0  0  0  0  0  0  0  0  0  0  0
    5.2283   -1.8986    0.0000 C   0  0  0  0  0  0  0  0  0  0  0  0
    6.4467   -2.7735    0.0000 O   0  0  0  0  0  0  0  0  0  0  0  0
    7.8136   -2.1556    0.0000 C   0  0  0  0  0  0  0  0  0  0  0  0
    7.9620   -0.6630    0.0000 C   0  0  0  0  0  0  0  0  0  0  0  0
    9.3288   -0.0452    0.0000 C   0  0  0  0  0  0  0  0  0  0  0  0
   10.5473   -0.9200    0.0000 C   0  0  0  0  0  0  0  0  0  0  0  0
   10.3989   -2.4126    0.0000 C   0  0  0  0  0  0  0  0  0  0  0  0
    9.0321   -3.0305    0.0000 C   0  0  0  0  0  0  0  0  0  0  0  0
    3.8614   -2.5165    0.0000 C   0  0  0  0  0  0  0  0  0  0  0  0
    2.6429   -1.6417    0.0000 C   0  0  0  0  0  0  0  0  0  0  0  0
    1.2761   -2.2595    0.0000 F   0  0  0  0  0  0  0  0  0  0  0  0
    1.5644    2.2258    0.0000 C   0  0  0  0  0  0  0  0  0  0  0  0
    2.6734    3.2358    0.0000 C   0  0  0  0  0  0  0  0  0  0  0  0
    4.1026    2.7803    0.0000 N   0  0  0  0  0  0  0  0  0  0  0  0
    2.3533    4.7012    0.0000 N   0  0  0  0  0  0  0  0  0  0  0  0
    0.9241    5.1567    0.0000 C   0  0  0  0  0  0  0  0  0  0  0  0
   -0.1849    4.1467    0.0000 N   0  0  0  0  0  0  0  0  0  0  0  0
    0.1352    2.6813    0.0000 C   0  0  0  0  0  0  0  0  0  0  0  0
   -2.9823    0.1511    0.0000 C   0  0  0  0  0  0  0  0  0  0  0  0
  1  2  1  0
  2  3  1  0
  2  4  1  0
  2  5  1  0
  5  6  2  0
  6  7  1  0
  7  8  3  0
  6  9  1  0
  9 10  2  0
  9 11  1  0
 11 12  1  0
 12 13  1  0
 13 14  1  0
 14 15  1  0
 15 16  1  1
 16 17  1  0
 17 18  2  0
 18 19  1  0
 19 20  2  0
 20 21  1  0
 21 22  2  0
 22 23  1  0
 23 24  1  0
 24 25  2  0
 25 26  1  0
 26 27  2  0
 27 28  1  0
 28 29  2  0
 22 30  1  0
 30 31  2  0
 31 32  1  0
 18 33  1  0
 33 34  2  0
 34 35  1  0
 34 36  1  0
 36 37  2  0
 37 38  1  0
 38 39  2  0
 15 40  1  0
 40 11  1  0
 39 16  1  0
 31 19  1  0
 39 33  1  0
 29 24  1  0
M  END
>  <BrandName>  (5) 


>  <Applicants>  (5) 
('Principia Biopharma',)

>  <CHEMBL_ID>  (5) 
CHEMBL4114766

>  <Canonical_Smiles>  (5) 
CC(C)(C)/C=C(\C#N)C(=O)N1CCC[C@@H](n2nc(-c3ccc(Oc4ccccc4)cc3F)c3c(N)ncnc32)C1

>  <Chirality>  (5) 
Unknown

>  <First_Approval>  (5) 
nan

>  <Phase>  (5) 
1.0

>  <SC_Patent>  (5) 
nan

>  <Synonyms>  (5) 
ATUZABRUTINIB | PRN-473 | PRN473 | SAR-444727 | SAR444727

>  <Withdrawn>  (5) 
nan

>  <Indications>  (5) 
nan

>  <Type>  (5) 
nan

>  <targets_id>  (5) 
nan

>  <Inchi>  (5) 
InChI=1S/C30H30FN7O2/c1-30(2,3)15-19(16-32)29(39)37-13-7-8-20(17-37)38-28-25(27(33)34-18-35-28)26(36-38)23-12-11-22(14-24(23)31)40-21-9-5-4-6-10-21/h4-6,9-12,14-15,18,20H,7-8,13,17H2,1-3H3,(H2,33,34,35)/b19-15+/t20-/m1/s1

>  <stdInchikey>  (5) 
KZMQPYCXSAGLTB-ZWUNQBBJSA-N

>  <csid>  (5) 
76805815

>  <Links>  (5) 
|http://www.chemspider.com/Chemical-Structure.76805815.html|https://www.ebi.ac.uk/chembldb/compound/inspect/CHEMBL4114766|https://pubchem.ncbi.nlm.nih.gov/compound/73438222|https://precision.fda.gov/uniisearch/srs/unii/YZ68ZB8LWA

>  <LinkName>  (5) 
|ChemSpider|ChEMBL|PubChem|FDA SRS

>  <lig_pdb_ID>  (5) 


>  <pdb_IDs>  (5) 


>  <indicationDB>  (5) 


>  <uniprotId>  (5) 


>  <indicationG2P>  (5) 


>  <MW>  (5) 
539.2

>  <HBA>  (5) 
8

>  <HBD>  (5) 
1

>  <NRB>  (5) 
5

>  <TPSA>  (5) 
123.0

>  <LogP>  (5) 
5.7

>  <RoF>  (5) 
2

>  <Melting point>  (5) 
nan

>  <Targets>  (5) 
nan

>  <Kinase families>  (5) 


>  <FDA_approved>  (5) 


$$$$
Pamufetinib
     RDKit          2D

 37 40  0  0  0  0  0  0  0  0999 V2000
    8.7385    4.5685    0.0000 C   0  0  0  0  0  0  0  0  0  0  0  0
    8.4152    3.1038    0.0000 N   0  0  0  0  0  0  0  0  0  0  0  0
    6.9851    2.6514    0.0000 C   0  0  0  0  0  0  0  0  0  0  0  0
    5.8782    3.6638    0.0000 O   0  0  0  0  0  0  0  0  0  0  0  0
    6.6618    1.1867    0.0000 C   0  0  0  0  0  0  0  0  0  0  0  0
    5.2316    0.7343    0.0000 C   0  0  0  0  0  0  0  0  0  0  0  0
    4.9083   -0.7305    0.0000 C   0  0  0  0  0  0  0  0  0  0  0  0
    3.4782   -1.1829    0.0000 C   0  0  0  0  0  0  0  0  0  0  0  0
    3.1549   -2.6476    0.0000 C   0  0  0  0  0  0  0  0  0  0  0  0
    4.2617   -3.6600    0.0000 C   0  0  0  0  0  0  0  0  0  0  0  0
    5.6919   -3.2076    0.0000 N   0  0  0  0  0  0  0  0  0  0  0  0
    6.0152   -1.7428    0.0000 C   0  0  0  0  0  0  0  0  0  0  0  0
    7.4453   -1.2904    0.0000 C   0  0  0  0  0  0  0  0  0  0  0  0
    7.7686    0.1743    0.0000 C   0  0  0  0  0  0  0  0  0  0  0  0
    9.1988    0.6267    0.0000 O   0  0  0  0  0  0  0  0  0  0  0  0
   10.3056   -0.3857    0.0000 C   0  0  0  0  0  0  0  0  0  0  0  0
    2.3713   -0.1705    0.0000 O   0  0  0  0  0  0  0  0  0  0  0  0
    0.9411   -0.6229    0.0000 C   0  0  0  0  0  0  0  0  0  0  0  0
   -0.1657    0.3895    0.0000 C   0  0  0  0  0  0  0  0  0  0  0  0
   -1.5959   -0.0629    0.0000 C   0  0  0  0  0  0  0  0  0  0  0  0
   -1.9192   -1.5277    0.0000 C   0  0  0  0  0  0  0  0  0  0  0  0
   -0.8123   -2.5400    0.0000 C   0  0  0  0  0  0  0  0  0  0  0  0
    0.6178   -2.0876    0.0000 C   0  0  0  0  0  0  0  0  0  0  0  0
   -3.3493   -1.9801    0.0000 N   0  0  0  0  0  0  0  0  0  0  0  0
   -4.4562   -0.9677    0.0000 C   0  0  0  0  0  0  0  0  0  0  0  0
   -4.1329    0.4971    0.0000 S   0  0  0  0  0  0  0  0  0  0  0  0
   -5.8863   -1.4201    0.0000 N   0  0  0  0  0  0  0  0  0  0  0  0
   -6.9932   -0.4077    0.0000 C   0  0  0  0  0  0  0  0  0  0  0  0
   -6.6699    1.0570    0.0000 O   0  0  0  0  0  0  0  0  0  0  0  0
   -8.4234   -0.8601    0.0000 C   0  0  0  0  0  0  0  0  0  0  0  0
   -9.5302    0.1522    0.0000 C   0  0  0  0  0  0  0  0  0  0  0  0
   -9.2069    1.6170    0.0000 C   0  0  0  0  0  0  0  0  0  0  0  0
  -10.3138    2.6294    0.0000 C   0  0  0  0  0  0  0  0  0  0  0  0
  -11.7439    2.1770    0.0000 C   0  0  0  0  0  0  0  0  0  0  0  0
  -12.0672    0.7122    0.0000 C   0  0  0  0  0  0  0  0  0  0  0  0
  -10.9604   -0.3001    0.0000 C   0  0  0  0  0  0  0  0  0  0  0  0
    0.1576    1.8542    0.0000 F   0  0  0  0  0  0  0  0  0  0  0  0
  1  2  1  0
  2  3  1  0
  3  4  2  0
  3  5  1  0
  5  6  2  0
  6  7  1  0
  7  8  2  0
  8  9  1  0
  9 10  2  0
 10 11  1  0
 11 12  2  0
 12 13  1  0
 13 14  2  0
 14 15  1  0
 15 16  1  0
  8 17  1  0
 17 18  1  0
 18 19  2  0
 19 20  1  0
 20 21  2  0
 21 22  1  0
 22 23  2  0
 21 24  1  0
 24 25  1  0
 25 26  2  0
 25 27  1  0
 27 28  1  0
 28 29  2  0
 28 30  1  0
 30 31  1  0
 31 32  2  0
 32 33  1  0
 33 34  2  0
 34 35  1  0
 35 36  2  0
 19 37  1  0
 14  5  1  0
 12  7  1  0
 23 18  1  0
 36 31  1  0
M  END
>  <BrandName>  (6) 


>  <Applicants>  (6) 
Taiho Pharmaceutical

>  <CHEMBL_ID>  (6) 
CHEMBL3764045

>  <Canonical_Smiles>  (6) 
CNC(=O)C1=CC2=C(C=CN=C2C=C1OC)OC3=C(C=C(C=C3)NC(=S)NC(=O)CC4=CC=CC=C4)F

>  <Chirality>  (6) 
Achiral Molecule

>  <First_Approval>  (6) 
nan

>  <Phase>  (6) 
1.0

>  <SC_Patent>  (6) 
nan

>  <Synonyms>  (6) 
PAMUFETINIB | TAS-115

>  <Withdrawn>  (6) 
nan

>  <Indications>  (6) 
nan

>  <Type>  (6) 
nan

>  <targets_id>  (6) 
nan

>  <Inchi>  (6) 
InChI=1S/C27H23FN4O4S/c1-29-26(34)19-14-18-21(15-24(19)35-2)30-11-10-22(18)36-23-9-8-17(13-20(23)28)31-27(37)32-25(33)12-16-6-4-3-5-7-16/h3-11,13-15H,12H2,1-2H3,(H,29,34)(H2,31,32,33,37)

>  <stdInchikey>  (6) 
ORRNXRYWGDUDOG-UHFFFAOYSA-N

>  <csid>  (6) 
58796450

>  <Links>  (6) 
|http://www.chemspider.com/Chemical-Structure.58796450.html|https://www.ebi.ac.uk/chembldb/compound/inspect/CHEMBL3764045|https://pubchem.ncbi.nlm.nih.gov/compound/44247727|https://www.guidetopharmacology.org/GRAC/LigandDisplayForward?10460|https://zinc15.docking.org/substances/ZINC000115306389|https://precision.fda.gov/uniisearch/srs/unii/H2OL3Q4XRD|https://www.bindingdb.org/bind/chemsearch/marvin/MolStructure.jsp?monomerid=50146163

>  <LinkName>  (6) 
|ChemSpider|ChEMBL|PubChem|Guide to Pharmacology|ZINC|FDA SRS|BindingDB

>  <lig_pdb_ID>  (6) 


>  <pdb_IDs>  (6) 


>  <indicationDB>  (6) 


>  <uniprotId>  (6) 


>  <indicationG2P>  (6) 
None

>  <MW>  (6) 
518.1

>  <HBA>  (6) 
6

>  <HBD>  (6) 
3

>  <NRB>  (6) 
7

>  <TPSA>  (6) 
101.6

>  <LogP>  (6) 
4.6

>  <RoF>  (6) 
1

>  <Melting point>  (6) 
nan

>  <Targets>  (6) 
nan

>  <Kinase families>  (6) 


>  <FDA_approved>  (6) 


$$$$
Puquitinib
     RDKit          2D

 24 28  0  0  0  0  0  0  0  0999 V2000
    6.4703   -0.9375    0.0000 C   0  0  0  0  0  0  0  0  0  0  0  0
    5.2200   -1.7663    0.0000 C   0  0  0  0  0  0  0  0  0  0  0  0
    3.8771   -1.0980    0.0000 C   0  0  0  0  0  0  0  0  0  0  0  0
    2.6269   -1.9268    0.0000 C   0  0  0  0  0  0  0  0  0  0  0  0
    1.2840   -1.2585    0.0000 C   0  0  0  0  0  0  0  0  0  0  0  0
    1.1914    0.2387    0.0000 C   0  0  0  0  0  0  0  0  0  0  0  0
    2.4416    1.0675    0.0000 C   0  0  0  0  0  0  0  0  0  0  0  0
    3.7845    0.3991    0.0000 C   0  0  0  0  0  0  0  0  0  0  0  0
    5.0347    1.2279    0.0000 N   0  0  0  0  0  0  0  0  0  0  0  0
    6.3776    0.5596    0.0000 C   0  0  0  0  0  0  0  0  0  0  0  0
    0.0338   -2.0873    0.0000 N   0  0  0  0  0  0  0  0  0  0  0  0
   -1.3091   -1.4189    0.0000 C   0  0  0  0  0  0  0  0  0  0  0  0
   -2.5593   -2.2477    0.0000 N   0  0  0  0  0  0  0  0  0  0  0  0
   -3.9022   -1.5794    0.0000 C   0  0  0  0  0  0  0  0  0  0  0  0
   -3.9949   -0.0823    0.0000 C   0  0  0  0  0  0  0  0  0  0  0  0
   -2.7446    0.7465    0.0000 C   0  0  0  0  0  0  0  0  0  0  0  0
   -1.4017    0.0782    0.0000 N   0  0  0  0  0  0  0  0  0  0  0  0
   -2.8373    2.2437    0.0000 N   0  0  0  0  0  0  0  0  0  0  0  0
   -1.5870    3.0725    0.0000 C   0  0  0  0  0  0  0  0  0  0  0  0
   -0.9187    4.4153    0.0000 C   0  0  0  0  0  0  0  0  0  0  0  0
   -0.0899    3.1651    0.0000 C   0  0  0  0  0  0  0  0  0  0  0  0
   -5.4473    0.2923    0.0000 N   0  0  0  0  0  0  0  0  0  0  0  0
   -6.2524   -0.9734    0.0000 C   0  0  0  0  0  0  0  0  0  0  0  0
   -5.2974   -2.1302    0.0000 N   0  0  0  0  0  0  0  0  0  0  0  0
  1  2  2  0
  2  3  1  0
  3  4  2  0
  4  5  1  0
  5  6  2  0
  6  7  1  0
  7  8  2  0
  8  9  1  0
  9 10  2  0
  5 11  1  0
 11 12  1  0
 12 13  2  0
 13 14  1  0
 14 15  2  0
 15 16  1  0
 16 17  2  0
 16 18  1  0
 18 19  1  0
 19 20  1  0
 20 21  1  0
 15 22  1  0
 22 23  1  0
 23 24  2  0
 10  1  1  0
  8  3  1  0
 17 12  1  0
 24 14  1  0
 21 19  1  0
M  END
>  <BrandName>  (7) 


>  <Applicants>  (7) 
Zhejiang Medicine

>  <CHEMBL_ID>  (7) 
CHEMBL4596972

>  <Canonical_Smiles>  (7) 
c1cc2cc(ccc2nc1)Nc3nc4c(c(n3)NC5CC5)[nH]cn4

>  <Chirality>  (7) 
Achiral Molecule

>  <First_Approval>  (7) 
nan

>  <Phase>  (7) 
1.0

>  <SC_Patent>  (7) 
nan

>  <Synonyms>  (7) 
PUQUITINIB DIMESYLATE DIHYDRATE | PUQUITINIB MESYLATE DIHYDRATE | XC-302

>  <Withdrawn>  (7) 
nan

>  <Indications>  (7) 
nan

>  <Type>  (7) 
nan

>  <targets_id>  (7) 
nan

>  <Inchi>  (7) 
InChI=1S/C17H15N7/c1-2-10-8-12(5-6-13(10)18-7-1)22-17-23-15-14(19-9-20-15)16(24-17)21-11-3-4-11/h1-2,5-9,11H,3-4H2,(H3,19,20,21,22,23,24)

>  <stdInchikey>  (7) 
QUTFBURLXCODBH-UHFFFAOYSA-N

>  <csid>  (7) 
13114568

>  <Links>  (7) 
|http://www.chemspider.com/Chemical-Structure.13114568.html|https://www.ebi.ac.uk/chembldb/compound/inspect/CHEMBL4596972|https://pubchem.ncbi.nlm.nih.gov/compound/15983184|https://www.guidetopharmacology.org/GRAC/LigandDisplayForward?9928|https://precision.fda.gov/uniisearch/srs/unii/WFG29AB872

>  <LinkName>  (7) 
|ChemSpider|ChEMBL|PubChem|Guide to Pharmacology|FDA SRS

>  <lig_pdb_ID>  (7) 


>  <pdb_IDs>  (7) 


>  <indicationDB>  (7) 


>  <uniprotId>  (7) 


>  <indicationG2P>  (7) 
None

>  <MW>  (7) 
317.1

>  <HBA>  (7) 
6

>  <HBD>  (7) 
3

>  <NRB>  (7) 
4

>  <TPSA>  (7) 
91.4

>  <LogP>  (7) 
3.2

>  <RoF>  (7) 
0

>  <Melting point>  (7) 
nan

>  <Targets>  (7) 
nan

>  <Kinase families>  (7) 


>  <FDA_approved>  (7) 


$$$$
Gartisertib
     RDKit          2D

 39 44  0  0  0  0  0  0  0  0999 V2000
    2.3251   -1.8348    0.0000 N   0  0  0  0  0  0  0  0  0  0  0  0
    3.8241   -1.7798    0.0000 C   0  0  0  0  0  0  0  0  0  0  0  0
    4.7497   -2.9601    0.0000 N   0  0  0  0  0  0  0  0  0  0  0  0
    6.1583   -2.4446    0.0000 N   0  0  0  0  0  0  0  0  0  0  0  0
    7.4840   -3.1464    0.0000 C   0  0  0  0  0  0  0  0  0  0  0  0
    8.7546   -2.3492    0.0000 C   0  0  0  0  0  0  0  0  0  0  0  0
   10.0803   -3.0510    0.0000 F   0  0  0  0  0  0  0  0  0  0  0  0
    8.6996   -0.8502    0.0000 C   0  0  0  0  0  0  0  0  0  0  0  0
    7.3739   -0.1484    0.0000 N   0  0  0  0  0  0  0  0  0  0  0  0
    6.1033   -0.9456    0.0000 C   0  0  0  0  0  0  0  0  0  0  0  0
    4.6606   -0.5347    0.0000 C   0  0  0  0  0  0  0  0  0  0  0  0
    4.1450    0.8739    0.0000 C   0  0  0  0  0  0  0  0  0  0  0  0
    5.1071    2.0247    0.0000 O   0  0  0  0  0  0  0  0  0  0  0  0
    2.6674    1.1317    0.0000 N   0  0  0  0  0  0  0  0  0  0  0  0
    2.1518    2.5403    0.0000 C   0  0  0  0  0  0  0  0  0  0  0  0
    3.1139    3.6911    0.0000 C   0  0  0  0  0  0  0  0  0  0  0  0
    2.5983    5.0997    0.0000 N   0  0  0  0  0  0  0  0  0  0  0  0
    1.1206    5.3575    0.0000 C   0  0  0  0  0  0  0  0  0  0  0  0
    0.1585    4.2067    0.0000 C   0  0  0  0  0  0  0  0  0  0  0  0
   -1.3192    4.4645    0.0000 F   0  0  0  0  0  0  0  0  0  0  0  0
    0.6741    2.7981    0.0000 C   0  0  0  0  0  0  0  0  0  0  0  0
   -0.2880    1.6473    0.0000 N   0  0  0  0  0  0  0  0  0  0  0  0
   -1.7657    1.9051    0.0000 C   0  0  0  0  0  0  0  0  0  0  0  0
   -2.7278    0.7543    0.0000 C   0  0  0  0  0  0  0  0  0  0  0  0
   -2.2122   -0.6543    0.0000 C   0  0  0  0  0  0  0  0  0  0  0  0
   -3.1743   -1.8051    0.0000 C   0  0  0  0  0  0  0  0  0  0  0  0
   -2.6587   -3.2137    0.0000 O   0  0  0  0  0  0  0  0  0  0  0  0
   -4.6520   -1.5473    0.0000 N   0  0  0  0  0  0  0  0  0  0  0  0
   -5.1676   -0.1387    0.0000 C   0  0  0  0  0  0  0  0  0  0  0  0
   -6.6452    0.1191    0.0000 C   0  0  0  0  0  0  0  0  0  0  0  0
   -7.6073   -1.0317    0.0000 N   0  0  0  0  0  0  0  0  0  0  0  0
   -9.0850   -0.7739    0.0000 C   0  0  0  0  0  0  0  0  0  0  0  0
   -9.9476    0.4532    0.0000 C   0  0  0  0  0  0  0  0  0  0  0  0
  -11.1748   -0.4093    0.0000 O   0  0  0  0  0  0  0  0  0  0  0  0
  -10.3122   -1.6365    0.0000 C   0  0  0  0  0  0  0  0  0  0  0  0
   -7.0918   -2.4403    0.0000 C   0  0  0  0  0  0  0  0  0  0  0  0
   -5.6141   -2.6981    0.0000 C   0  0  0  0  0  0  0  0  0  0  0  0
   -0.7345   -0.9121    0.0000 C   0  0  0  0  0  0  0  0  0  0  0  0
    0.2276    0.2387    0.0000 C   0  0  0  0  0  0  0  0  0  0  0  0
  1  2  1  0
  2  3  2  0
  3  4  1  0
  4  5  1  0
  5  6  2  0
  6  7  1  0
  6  8  1  0
  8  9  2  0
  9 10  1  0
 10 11  2  0
 11 12  1  0
 12 13  2  0
 12 14  1  0
 14 15  1  0
 15 16  2  0
 16 17  1  0
 17 18  2  0
 18 19  1  0
 19 20  1  0
 19 21  2  0
 21 22  1  0
 22 23  1  0
 23 24  1  0
 24 25  1  0
 25 26  1  0
 26 27  2  0
 26 28  1  0
 28 29  1  0
 29 30  1  0
 30 31  1  0
 31 32  1  0
 32 33  1  0
 33 34  1  0
 34 35  1  0
 31 36  1  0
 36 37  1  0
 25 38  1  0
 38 39  1  0
 11  2  1  0
 21 15  1  0
 39 22  1  0
 10  4  1  0
 37 28  1  0
 35 32  1  0
M  END
>  <BrandName>  (8) 


>  <Applicants>  (8) 
Vertex Pharmaceuticals

>  <CHEMBL_ID>  (8) 
CHEMBL4650286

>  <Canonical_Smiles>  (8) 
Nc1nn2cc(F)cnc2c1C(=O)Nc1cncc(F)c1N1CCC(C(=O)N2CCN(C3COC3)CC2)CC1

>  <Chirality>  (8) 
Achiral Molecule

>  <First_Approval>  (8) 
nan

>  <Phase>  (8) 
1.0

>  <SC_Patent>  (8) 
nan

>  <Synonyms>  (8) 
GARTISERTIB | M 4344 | M-4344 | M4344 | VX-803

>  <Withdrawn>  (8) 
nan

>  <Indications>  (8) 
nan

>  <Type>  (8) 
nan

>  <targets_id>  (8) 
nan

>  <Inchi>  (8) 
InChI=1S/C25H29F2N9O3/c26-16-9-30-23-20(22(28)32-36(23)12-16)24(37)31-19-11-29-10-18(27)21(19)34-3-1-15(2-4-34)25(38)35-7-5-33(6-8-35)17-13-39-14-17/h9-12,15,17H,1-8,13-14H2,(H2,28,32)(H,31,37)

>  <stdInchikey>  (8) 
QAYHKBLKSXWOEO-UHFFFAOYSA-N

>  <csid>  (8) 
64866821

>  <Links>  (8) 
|http://www.chemspider.com/Chemical-Structure.64866821.html|https://www.ebi.ac.uk/chembldb/compound/inspect/CHEMBL4650286|https://pubchem.ncbi.nlm.nih.gov/compound/86720912|https://precision.fda.gov/uniisearch/srs/unii/7OM98IUD1O|https://www.bindingdb.org/bind/chemsearch/marvin/MolStructure.jsp?monomerid=412060

>  <LinkName>  (8) 
|ChemSpider|ChEMBL|PubChem|FDA SRS|BindingDB

>  <lig_pdb_ID>  (8) 


>  <pdb_IDs>  (8) 


>  <indicationDB>  (8) 


>  <uniprotId>  (8) 


>  <indicationG2P>  (8) 


>  <MW>  (8) 
541.2

>  <HBA>  (8) 
10

>  <HBD>  (8) 
2

>  <NRB>  (8) 
5

>  <TPSA>  (8) 
134.2

>  <LogP>  (8) 
1.0

>  <RoF>  (8) 
1

>  <Melting point>  (8) 
nan

>  <Targets>  (8) 
nan

>  <Kinase families>  (8) 


>  <FDA_approved>  (8) 


$$$$
Zipalertinib
     RDKit          2D

 30 34  0  0  0  0  0  0  0  0999 V2000
   -8.7028   -0.3290    0.0000 C   0  0  0  0  0  0  0  0  0  0  0  0
   -7.5923   -1.3373    0.0000 C   0  0  0  0  0  0  0  0  0  0  0  0
   -6.1638   -0.8797    0.0000 C   0  0  0  0  0  0  0  0  0  0  0  0
   -5.8458    0.5862    0.0000 O   0  0  0  0  0  0  0  0  0  0  0  0
   -5.0533   -1.8881    0.0000 N   0  0  0  0  0  0  0  0  0  0  0  0
   -3.6248   -1.4305    0.0000 C   0  0  0  0  0  0  0  0  0  0  0  0
   -2.5143   -2.4389    0.0000 C   0  0  0  0  0  0  0  0  0  0  0  0
   -1.0857   -1.9813    0.0000 C   0  0  0  0  0  0  0  0  0  0  0  0
    0.0248   -2.9897    0.0000 C   0  0  0  0  0  0  0  0  0  0  0  0
   -0.7678   -0.5154    0.0000 C   0  0  0  0  0  0  0  0  0  0  0  0
    0.5344    0.2291    0.0000 C   0  0  0  0  0  0  0  0  0  0  0  0
    1.9022   -0.3867    0.0000 C   0  0  0  0  0  0  0  0  0  0  0  0
    2.0527   -1.8791    0.0000 C   0  0  0  0  0  0  0  0  0  0  0  0
    3.4205   -2.4949    0.0000 N   0  0  0  0  0  0  0  0  0  0  0  0
    4.6377   -1.6183    0.0000 C   0  0  0  0  0  0  0  0  0  0  0  0
    6.0054   -2.2342    0.0000 C   0  0  0  0  0  0  0  0  0  0  0  0
    7.2226   -1.3576    0.0000 C   0  0  0  0  0  0  0  0  0  0  0  0
    7.0721    0.1349    0.0000 C   0  0  0  0  0  0  0  0  0  0  0  0
    5.7043    0.7507    0.0000 C   0  0  0  0  0  0  0  0  0  0  0  0
    4.4871   -0.1259    0.0000 C   0  0  0  0  0  0  0  0  0  0  0  0
    3.1194    0.4899    0.0000 C   0  0  0  0  0  0  0  0  0  0  0  0
    0.2287    1.6977    0.0000 C   0  0  0  0  0  0  0  0  0  0  0  0
    1.1154    2.9075    0.0000 C   0  0  0  0  0  0  0  0  0  0  0  0
    2.6065    2.7445    0.0000 N   0  0  0  0  0  0  0  0  0  0  0  0
    0.5110    4.2803    0.0000 N   0  0  0  0  0  0  0  0  0  0  0  0
   -0.9801    4.4434    0.0000 C   0  0  0  0  0  0  0  0  0  0  0  0
   -1.8668    3.2335    0.0000 N   0  0  0  0  0  0  0  0  0  0  0  0
   -1.2624    1.8607    0.0000 C   0  0  0  0  0  0  0  0  0  0  0  0
   -1.8783    0.4929    0.0000 N   0  0  0  0  0  0  0  0  0  0  0  0
   -3.3068    0.0354    0.0000 C   0  0  0  0  0  0  0  0  0  0  0  0
  1  2  2  0
  2  3  1  0
  3  4  2  0
  3  5  1  0
  6  5  1  6
  6  7  1  0
  7  8  2  0
  8  9  1  0
  8 10  1  0
 10 11  2  0
 11 12  1  0
 12 13  2  0
 13 14  1  0
 14 15  2  0
 15 16  1  0
 16 17  2  0
 17 18  1  0
 18 19  2  0
 19 20  1  0
 20 21  2  0
 11 22  1  0
 22 23  2  0
 23 24  1  0
 23 25  1  0
 25 26  2  0
 26 27  1  0
 27 28  2  0
 28 29  1  0
 29 30  1  0
 30  6  1  0
 29 10  1  0
 21 12  1  0
 28 22  1  0
 20 15  1  0
M  END
>  <BrandName>  (9) 


>  <Applicants>  (9) 
Taiho Pharmaceutical

>  <CHEMBL_ID>  (9) 
CHEMBL4650281

>  <Canonical_Smiles>  (9) 
C=CC(=O)N[C@H]1C=C(C)c2c(-c3cnc4ccccc4c3)c3c(N)ncnc3n2C1

>  <Chirality>  (9) 
Single Stereoisomer

>  <First_Approval>  (9) 
nan

>  <Phase>  (9) 
1.0

>  <SC_Patent>  (9) 
nan

>  <Synonyms>  (9) 
CLN 081 | CLN-081 | CLN081 | TAS-6417 | TAS6417 | TPC-064 | TPC064 | ZIPALERTINIB

>  <Withdrawn>  (9) 
nan

>  <Indications>  (9) 
nan

>  <Type>  (9) 
nan

>  <targets_id>  (9) 
nan

>  <Inchi>  (9) 
InChI=1S/C23H20N6O/c1-3-18(30)28-16-8-13(2)21-19(15-9-14-6-4-5-7-17(14)25-10-15)20-22(24)26-12-27-23(20)29(21)11-16/h3-10,12,16H,1,11H2,2H3,(H,28,30)(H2,24,26,27)/t16-/m0/s1

>  <stdInchikey>  (9) 
MKCYPWYURWOKST-INIZCTEOSA-N

>  <csid>  (9) 
71117518

>  <Links>  (9) 
|http://www.chemspider.com/Chemical-Structure.71117518.html|https://www.ebi.ac.uk/chembldb/compound/inspect/CHEMBL4650281|https://pubchem.ncbi.nlm.nih.gov/compound/117918742|https://www.rcsb.org/ligand/X9H|https://www.ebi.ac.uk/pdbe-srv/pdbechem/chemicalCompound/show/X9H

>  <LinkName>  (9) 
|ChemSpider|ChEMBL|PubChem|RCSB|PDBe

>  <lig_pdb_ID>  (9) 
X9H

>  <pdb_IDs>  (9) 
8f1h

>  <indicationDB>  (9) 


>  <uniprotId>  (9) 


>  <indicationG2P>  (9) 


>  <MW>  (9) 
396.2

>  <HBA>  (9) 
6

>  <HBD>  (9) 
2

>  <NRB>  (9) 
3

>  <TPSA>  (9) 
98.7

>  <LogP>  (9) 
3.3

>  <RoF>  (9) 
0

>  <Melting point>  (9) 
nan

>  <Targets>  (9) 
nan

>  <Kinase families>  (9) 


>  <FDA_approved>  (9) 


$$$$
Lomecitinib
     RDKit          2D

 29 32  0  0  0  0  0  0  0  0999 V2000
    5.4059   -3.9855    0.0000 C   0  0  0  0  0  0  0  0  0  0  0  0
    3.9091   -3.8873    0.0000 N   0  0  0  0  0  0  0  0  0  0  0  0
    3.2457   -2.5420    0.0000 C   0  0  0  0  0  0  0  0  0  0  0  0
    4.0790   -1.2948    0.0000 O   0  0  0  0  0  0  0  0  0  0  0  0
    1.7489   -2.4439    0.0000 C   0  0  0  0  0  0  0  0  0  0  0  0
    0.9155   -3.6911    0.0000 N   0  0  0  0  0  0  0  0  0  0  0  0
   -0.5813   -3.5929    0.0000 N   0  0  0  0  0  0  0  0  0  0  0  0
   -1.2447   -2.2476    0.0000 C   0  0  0  0  0  0  0  0  0  0  0  0
   -2.7415   -2.1495    0.0000 N   0  0  0  0  0  0  0  0  0  0  0  0
   -3.4049   -0.8042    0.0000 C   0  0  0  0  0  0  0  0  0  0  0  0
   -2.5715    0.4430    0.0000 O   0  0  0  0  0  0  0  0  0  0  0  0
   -4.9017   -0.7061    0.0000 C   0  0  0  0  0  0  0  0  0  0  0  0
   -6.2470   -1.3695    0.0000 C   0  0  0  0  0  0  0  0  0  0  0  0
   -6.1489    0.1273    0.0000 C   0  0  0  0  0  0  0  0  0  0  0  0
   -7.3961    0.9607    0.0000 C   0  0  0  0  0  0  0  0  0  0  0  0
   -6.0507    1.6241    0.0000 C   0  0  0  0  0  0  0  0  0  0  0  0
   -0.4113   -1.0004    0.0000 C   0  0  0  0  0  0  0  0  0  0  0  0
    1.0855   -1.0986    0.0000 C   0  0  0  0  0  0  0  0  0  0  0  0
    1.9188    0.1486    0.0000 N   0  0  0  0  0  0  0  0  0  0  0  0
    1.2554    1.4939    0.0000 C   0  0  0  0  0  0  0  0  0  0  0  0
   -0.2414    1.5921    0.0000 N   0  0  0  0  0  0  0  0  0  0  0  0
   -0.9048    2.9374    0.0000 C   0  0  0  0  0  0  0  0  0  0  0  0
   -0.0714    4.1846    0.0000 C   0  0  0  0  0  0  0  0  0  0  0  0
    1.4254    4.0865    0.0000 C   0  0  0  0  0  0  0  0  0  0  0  0
    2.0888    2.7411    0.0000 C   0  0  0  0  0  0  0  0  0  0  0  0
    3.5856    2.6430    0.0000 S   0  0  0  0  0  0  0  0  0  0  0  0
    5.0824    2.5449    0.0000 C   0  0  0  0  0  0  0  0  0  0  0  0
    3.4875    1.1462    0.0000 O   0  0  0  0  0  0  0  0  0  0  0  0
    3.6837    4.1398    0.0000 O   0  0  0  0  0  0  0  0  0  0  0  0
  1  2  1  0
  2  3  1  0
  3  4  2  0
  3  5  1  0
  5  6  2  0
  6  7  1  0
  7  8  2  0
  8  9  1  0
  9 10  1  0
 10 11  2  0
 12 10  1  6
 12 13  1  0
 13 14  1  0
 14 15  1  0
 15 16  1  0
  8 17  1  0
 17 18  2  0
 18 19  1  0
 19 20  1  0
 20 21  2  0
 21 22  1  0
 22 23  2  0
 23 24  1  0
 24 25  2  0
 25 26  1  0
 26 27  1  0
 26 28  2  0
 26 29  2  0
 18  5  1  0
 25 20  1  0
 14 12  1  0
 16 14  1  0
M  END
>  <BrandName>  (10) 


>  <Applicants>  (10) 
('',)

>  <CHEMBL_ID>  (10) 
CHEMBL5316168

>  <Canonical_Smiles>  (10) 
CNC(=O)c1nnc(NC(=O)[C@@H]2CC23CC3)cc1Nc1ncccc1S(C)(=O)=O

>  <Chirality>  (10) 
Unknown

>  <First_Approval>  (10) 
nan

>  <Phase>  (10) 
1.0

>  <SC_Patent>  (10) 
nan

>  <Synonyms>  (10) 


>  <Withdrawn>  (10) 
nan

>  <Indications>  (10) 
nan

>  <Type>  (10) 
nan

>  <targets_id>  (10) 
nan

>  <Inchi>  (10) 
InChI=1S/C18H20N6O4S/c1-19-17(26)14-11(21-15-12(29(2,27)28)4-3-7-20-15)8-13(23-24-14)22-16(25)10-9-18(10)5-6-18/h3-4,7-8,10H,5-6,9H2,1-2H3,(H,19,26)(H2,20,21,22,23,25)/t10-/m0/s1

>  <stdInchikey>  (10) 
VWIVBQZLVAGLMH-JTQLQIEISA-N

>  <csid>  (10) 
nan

>  <Links>  (10) 
|http://www.chemspider.com/Chemical-Structure.nan.html|https://www.ebi.ac.uk/chembldb/compound/inspect/CHEMBL5316168

>  <LinkName>  (10) 
|ChemSpider|ChEMBL

>  <lig_pdb_ID>  (10) 


>  <pdb_IDs>  (10) 


>  <indicationDB>  (10) 


>  <uniprotId>  (10) 


>  <indicationG2P>  (10) 


>  <MW>  (10) 
416.1

>  <HBA>  (10) 
8

>  <HBD>  (10) 
3

>  <NRB>  (10) 
6

>  <TPSA>  (10) 
143.0

>  <LogP>  (10) 
1.1

>  <RoF>  (10) 
0

>  <Melting point>  (10) 
nan

>  <Targets>  (10) 
nan

>  <Kinase families>  (10) 


>  <FDA_approved>  (10) 


$$$$
Conteltinib
     RDKit          2D

 45 50  0  0  0  0  0  0  0  0999 V2000
    1.8345    6.3460    0.0000 C   0  0  0  0  0  0  0  0  0  0  0  0
    0.5919    5.5058    0.0000 O   0  0  0  0  0  0  0  0  0  0  0  0
    0.6982    4.0096    0.0000 C   0  0  0  0  0  0  0  0  0  0  0  0
    2.0472    3.3536    0.0000 C   0  0  0  0  0  0  0  0  0  0  0  0
    2.1535    1.8573    0.0000 C   0  0  0  0  0  0  0  0  0  0  0  0
    3.5025    1.2013    0.0000 N   0  0  0  0  0  0  0  0  0  0  0  0
    3.6088   -0.2949    0.0000 C   0  0  0  0  0  0  0  0  0  0  0  0
    4.9577   -0.9509    0.0000 C   0  0  0  0  0  0  0  0  0  0  0  0
    6.2003   -0.1107    0.0000 C   0  0  0  0  0  0  0  0  0  0  0  0
    7.5493   -0.7668    0.0000 N   0  0  0  0  0  0  0  0  0  0  0  0
    7.6556   -2.2630    0.0000 C   0  0  0  0  0  0  0  0  0  0  0  0
    9.0045   -2.9190    0.0000 C   0  0  0  0  0  0  0  0  0  0  0  0
   10.2471   -2.0788    0.0000 N   0  0  0  0  0  0  0  0  0  0  0  0
   11.5961   -2.7349    0.0000 C   0  0  0  0  0  0  0  0  0  0  0  0
   10.1408   -0.5826    0.0000 C   0  0  0  0  0  0  0  0  0  0  0  0
    8.7919    0.0734    0.0000 C   0  0  0  0  0  0  0  0  0  0  0  0
    6.0940    1.3855    0.0000 C   0  0  0  0  0  0  0  0  0  0  0  0
    4.7451    2.0415    0.0000 C   0  0  0  0  0  0  0  0  0  0  0  0
    0.9109    1.0171    0.0000 C   0  0  0  0  0  0  0  0  0  0  0  0
   -0.4380    1.6732    0.0000 C   0  0  0  0  0  0  0  0  0  0  0  0
   -0.5444    3.1694    0.0000 C   0  0  0  0  0  0  0  0  0  0  0  0
   -1.8933    3.8254    0.0000 N   0  0  0  0  0  0  0  0  0  0  0  0
   -3.1359    2.9852    0.0000 C   0  0  0  0  0  0  0  0  0  0  0  0
   -4.4848    3.6412    0.0000 N   0  0  0  0  0  0  0  0  0  0  0  0
   -5.7274    2.8010    0.0000 C   0  0  0  0  0  0  0  0  0  0  0  0
   -5.6211    1.3048    0.0000 C   0  0  0  0  0  0  0  0  0  0  0  0
   -4.2722    0.6488    0.0000 C   0  0  0  0  0  0  0  0  0  0  0  0
   -4.1658   -0.8474    0.0000 N   0  0  0  0  0  0  0  0  0  0  0  0
   -2.8169   -1.5035    0.0000 C   0  0  0  0  0  0  0  0  0  0  0  0
   -1.5743   -0.6633    0.0000 C   0  0  0  0  0  0  0  0  0  0  0  0
   -0.2254   -1.3193    0.0000 C   0  0  0  0  0  0  0  0  0  0  0  0
   -0.1190   -2.8155    0.0000 C   0  0  0  0  0  0  0  0  0  0  0  0
   -1.3616   -3.6557    0.0000 C   0  0  0  0  0  0  0  0  0  0  0  0
   -2.7106   -2.9997    0.0000 C   0  0  0  0  0  0  0  0  0  0  0  0
   -3.9532   -3.8399    0.0000 S   0  0  0  0  0  0  0  0  0  0  0  0
   -3.1130   -5.0825    0.0000 O   0  0  0  0  0  0  0  0  0  0  0  0
   -4.7934   -2.5973    0.0000 O   0  0  0  0  0  0  0  0  0  0  0  0
   -5.1958   -4.6801    0.0000 N   0  0  0  0  0  0  0  0  0  0  0  0
   -6.5447   -4.0241    0.0000 C   0  0  0  0  0  0  0  0  0  0  0  0
   -7.7873   -4.8643    0.0000 C   0  0  0  0  0  0  0  0  0  0  0  0
   -6.6510   -2.5278    0.0000 C   0  0  0  0  0  0  0  0  0  0  0  0
   -3.0296    1.4890    0.0000 N   0  0  0  0  0  0  0  0  0  0  0  0
   -7.0112    0.7413    0.0000 C   0  0  0  0  0  0  0  0  0  0  0  0
   -7.9767    1.8893    0.0000 C   0  0  0  0  0  0  0  0  0  0  0  0
   -7.1833    3.1623    0.0000 N   0  0  0  0  0  0  0  0  0  0  0  0
  1  2  1  0
  2  3  1  0
  3  4  2  0
  4  5  1  0
  5  6  1  0
  6  7  1  0
  7  8  1  0
  8  9  1  0
  9 10  1  0
 10 11  1  0
 11 12  1  0
 12 13  1  0
 13 14  1  0
 13 15  1  0
 15 16  1  0
  9 17  1  0
 17 18  1  0
  5 19  2  0
 19 20  1  0
 20 21  2  0
 21 22  1  0
 22 23  1  0
 23 24  2  0
 24 25  1  0
 25 26  2  0
 26 27  1  0
 27 28  1  0
 28 29  1  0
 29 30  2  0
 30 31  1  0
 31 32  2  0
 32 33  1  0
 33 34  2  0
 34 35  1  0
 35 36  2  0
 35 37  2  0
 35 38  1  0
 38 39  1  0
 39 40  1  0
 39 41  1  0
 27 42  2  0
 26 43  1  0
 43 44  1  0
 44 45  1  0
 21  3  1  0
 42 23  1  0
 18  6  1  0
 45 25  1  0
 16 10  1  0
 34 29  1  0
M  END
>  <BrandName>  (11) 


>  <Applicants>  (11) 
Centaurus Biopharma

>  <CHEMBL_ID>  (11) 
CHEMBL3899477

>  <Canonical_Smiles>  (11) 
COc1cc(N2CCC(N3CCN(C)CC3)CC2)ccc1Nc1nc2c(c(Nc3ccccc3S(=O)(=O)NC(C)C)n1)CCN2

>  <Chirality>  (11) 
Unknown

>  <First_Approval>  (11) 
nan

>  <Phase>  (11) 
1.0

>  <SC_Patent>  (11) 
nan

>  <Synonyms>  (11) 
CONTELTINIB 

>  <Withdrawn>  (11) 
nan

>  <Indications>  (11) 
nan

>  <Type>  (11) 
nan

>  <targets_id>  (11) 
nan

>  <Inchi>  (11) 
InChI=1S/C32H45N9O3S/c1-22(2)38-45(42,43)29-8-6-5-7-27(29)34-31-25-11-14-33-30(25)36-32(37-31)35-26-10-9-24(21-28(26)44-4)40-15-12-23(13-16-40)41-19-17-39(3)18-20-41/h5-10,21-23,38H,11-20H2,1-4H3,(H3,33,34,35,36,37)

>  <stdInchikey>  (11) 
NPJCURIANJMFEO-UHFFFAOYSA-N

>  <csid>  (11) 
61732963

>  <Links>  (11) 
|http://www.chemspider.com/Chemical-Structure.61732963.html|https://www.ebi.ac.uk/chembldb/compound/inspect/CHEMBL3899477|https://pubchem.ncbi.nlm.nih.gov/compound/89860551|https://www.guidetopharmacology.org/GRAC/LigandDisplayForward?9763|https://precision.fda.gov/uniisearch/srs/unii/URX2UMQ8XV|https://www.bindingdb.org/bind/chemsearch/marvin/MolStructure.jsp?monomerid=245641

>  <LinkName>  (11) 
|ChemSpider|ChEMBL|PubChem|Guide to Pharmacology|FDA SRS|BindingDB

>  <lig_pdb_ID>  (11) 


>  <pdb_IDs>  (11) 


>  <indicationDB>  (11) 


>  <uniprotId>  (11) 


>  <indicationG2P>  (11) 
None

>  <MW>  (11) 
635.3

>  <HBA>  (11) 
11

>  <HBD>  (11) 
4

>  <NRB>  (11) 
10

>  <TPSA>  (11) 
127.0

>  <LogP>  (11) 
3.8

>  <RoF>  (11) 
2

>  <Melting point>  (11) 
nan

>  <Targets>  (11) 
nan

>  <Kinase families>  (11) 


>  <FDA_approved>  (11) 


$$$$
Avotaciclib
     RDKit          2D

 21 23  0  0  0  0  0  0  0  0999 V2000
    4.1964   -3.3254    0.0000 N   0  0  0  0  0  0  0  0  0  0  0  0
    4.1197   -1.8274    0.0000 C   0  0  0  0  0  0  0  0  0  0  0  0
    2.7840   -1.1448    0.0000 N   0  0  0  0  0  0  0  0  0  0  0  0
    2.7073    0.3532    0.0000 C   0  0  0  0  0  0  0  0  0  0  0  0
    3.9663    1.1687    0.0000 C   0  0  0  0  0  0  0  0  0  0  0  0
    5.3019    0.4861    0.0000 C   0  0  0  0  0  0  0  0  0  0  0  0
    5.3787   -1.0120    0.0000 N   0  0  0  0  0  0  0  0  0  0  0  0
    1.3716    1.0358    0.0000 C   0  0  0  0  0  0  0  0  0  0  0  0
    1.2949    2.5338    0.0000 C   0  0  0  0  0  0  0  0  0  0  0  0
   -0.0408    3.2164    0.0000 C   0  0  0  0  0  0  0  0  0  0  0  0
   -1.2998    2.4010    0.0000 C   0  0  0  0  0  0  0  0  0  0  0  0
   -2.6355    3.0835    0.0000 O   0  0  0  0  0  0  0  0  0  0  0  0
   -1.2231    0.9029    0.0000 C   0  0  0  0  0  0  0  0  0  0  0  0
    0.1126    0.2203    0.0000 N   0  0  0  0  0  0  0  0  0  0  0  0
   -2.4821    0.0875    0.0000 C   0  0  0  0  0  0  0  0  0  0  0  0
   -3.8178    0.7700    0.0000 C   0  0  0  0  0  0  0  0  0  0  0  0
   -5.0768   -0.0454    0.0000 C   0  0  0  0  0  0  0  0  0  0  0  0
   -5.0000   -1.5435    0.0000 N   0  0  0  0  0  0  0  0  0  0  0  0
   -3.6643   -2.2260    0.0000 C   0  0  0  0  0  0  0  0  0  0  0  0
   -3.5876   -3.7241    0.0000 N   0  0  0  0  0  0  0  0  0  0  0  0
   -2.4054   -1.4106    0.0000 N   0  0  0  0  0  0  0  0  0  0  0  0
  1  2  1  0
  2  3  2  0
  3  4  1  0
  4  5  2  0
  5  6  1  0
  6  7  2  0
  4  8  1  0
  8  9  2  0
  9 10  1  0
 10 11  2  0
 11 12  1  0
 11 13  1  0
 13 14  2  0
 13 15  1  0
 15 16  2  0
 16 17  1  0
 17 18  2  0
 18 19  1  0
 19 20  1  0
 19 21  2  0
  7  2  1  0
 14  8  1  0
 21 15  1  0
M  END
>  <BrandName>  (12) 


>  <Applicants>  (12) 
BeyondBio

>  <CHEMBL_ID>  (12) 
CHEMBL4650328

>  <Canonical_Smiles>  (12) 
NC1N=C(C=CN=1)C1=CC=C(O)C(=N1)C1C=CN=C(N)N=1

>  <Chirality>  (12) 
Achiral Molecule

>  <First_Approval>  (12) 
nan

>  <Phase>  (12) 
1.0

>  <SC_Patent>  (12) 
nan

>  <Synonyms>  (12) 
AVOTACICLIB | BEY-1107 | BEY1107 | CDK1 INHIBITOR BEY1107

>  <Withdrawn>  (12) 
nan

>  <Indications>  (12) 
nan

>  <Type>  (12) 
nan

>  <targets_id>  (12) 
nan

>  <Inchi>  (12) 
InChI=1S/C13H11N7O/c14-12-16-5-3-8(19-12)7-1-2-10(21)11(18-7)9-4-6-17-13(15)20-9/h1-6,21H,(H2,14,16,19)(H2,15,17,20)

>  <stdInchikey>  (12) 
VFVAQKKPFOPZEA-UHFFFAOYSA-N

>  <csid>  (12) 
115006923

>  <Links>  (12) 
|http://www.chemspider.com/Chemical-Structure.115006923.html|https://www.ebi.ac.uk/chembldb/compound/inspect/CHEMBL4650328|https://pubchem.ncbi.nlm.nih.gov/compound/137150099|https://go.drugbank.com/drugs/DB16652|https://precision.fda.gov/uniisearch/srs/unii/Z6BYC0F36E

>  <LinkName>  (12) 
|ChemSpider|ChEMBL|PubChem|DrugBank|FDA SRS

>  <lig_pdb_ID>  (12) 


>  <pdb_IDs>  (12) 


>  <indicationDB>  (12) 


>  <uniprotId>  (12) 


>  <indicationG2P>  (12) 


>  <MW>  (12) 
281.1

>  <HBA>  (12) 
8

>  <HBD>  (12) 
3

>  <NRB>  (12) 
2

>  <TPSA>  (12) 
136.7

>  <LogP>  (12) 
0.9

>  <RoF>  (12) 
0

>  <Melting point>  (12) 
nan

>  <Targets>  (12) 
nan

>  <Kinase families>  (12) 


>  <FDA_approved>  (12) 


$$$$
Tuxobertinib
     RDKit          2D

 40 44  0  0  0  0  0  0  0  0999 V2000
    6.6689    5.2182    0.0000 C   0  0  0  0  0  0  0  0  0  0  0  0
    5.2037    4.8971    0.0000 C   0  0  0  0  0  0  0  0  0  0  0  0
    4.7491    3.4676    0.0000 C   0  0  0  0  0  0  0  0  0  0  0  0
    5.7598    2.3592    0.0000 O   0  0  0  0  0  0  0  0  0  0  0  0
    3.2839    3.1466    0.0000 N   0  0  0  0  0  0  0  0  0  0  0  0
    2.8293    1.7171    0.0000 C   0  0  0  0  0  0  0  0  0  0  0  0
    1.3641    1.3960    0.0000 C   0  0  0  0  0  0  0  0  0  0  0  0
    0.9095   -0.0334    0.0000 C   0  0  0  0  0  0  0  0  0  0  0  0
   -0.5558   -0.3545    0.0000 C   0  0  0  0  0  0  0  0  0  0  0  0
   -1.5664    0.7539    0.0000 N   0  0  0  0  0  0  0  0  0  0  0  0
   -3.0317    0.4328    0.0000 C   0  0  0  0  0  0  0  0  0  0  0  0
   -4.0423    1.5412    0.0000 C   0  0  0  0  0  0  0  0  0  0  0  0
   -5.5076    1.2202    0.0000 C   0  0  0  0  0  0  0  0  0  0  0  0
   -5.9621   -0.2093    0.0000 C   0  0  0  0  0  0  0  0  0  0  0  0
   -7.4274   -0.5304    0.0000 O   0  0  0  0  0  0  0  0  0  0  0  0
   -8.4380    0.5780    0.0000 C   0  0  0  0  0  0  0  0  0  0  0  0
   -9.9033    0.2570    0.0000 C   0  0  0  0  0  0  0  0  0  0  0  0
  -10.9139    1.3654    0.0000 C   0  0  0  0  0  0  0  0  0  0  0  0
  -12.3792    1.0443    0.0000 C   0  0  0  0  0  0  0  0  0  0  0  0
  -12.8337   -0.3852    0.0000 C   0  0  0  0  0  0  0  0  0  0  0  0
  -11.8231   -1.4936    0.0000 C   0  0  0  0  0  0  0  0  0  0  0  0
  -10.3578   -1.1725    0.0000 N   0  0  0  0  0  0  0  0  0  0  0  0
   -4.9515   -1.3177    0.0000 C   0  0  0  0  0  0  0  0  0  0  0  0
   -5.4060   -2.7472    0.0000 Cl  0  0  0  0  0  0  0  0  0  0  0  0
   -3.4862   -0.9966    0.0000 C   0  0  0  0  0  0  0  0  0  0  0  0
   -1.0103   -1.7840    0.0000 N   0  0  0  0  0  0  0  0  0  0  0  0
    0.0004   -2.8924    0.0000 C   0  0  0  0  0  0  0  0  0  0  0  0
    1.4656   -2.5713    0.0000 N   0  0  0  0  0  0  0  0  0  0  0  0
    1.9202   -1.1418    0.0000 C   0  0  0  0  0  0  0  0  0  0  0  0
    3.3854   -0.8208    0.0000 C   0  0  0  0  0  0  0  0  0  0  0  0
    3.8400    0.6087    0.0000 C   0  0  0  0  0  0  0  0  0  0  0  0
    5.3052    0.9298    0.0000 O   0  0  0  0  0  0  0  0  0  0  0  0
    6.3159   -0.1786    0.0000 C   0  0  0  0  0  0  0  0  0  0  0  0
    7.7811    0.1424    0.0000 C   0  0  0  0  0  0  0  0  0  0  0  0
    8.7918   -0.9660    0.0000 N   0  0  0  0  0  0  0  0  0  0  0  0
    8.3372   -2.3954    0.0000 C   0  0  0  0  0  0  0  0  0  0  0  0
    9.3479   -3.5038    0.0000 C   0  0  0  0  0  0  0  0  0  0  0  0
   10.8131   -3.1828    0.0000 O   0  0  0  0  0  0  0  0  0  0  0  0
   11.2677   -1.7533    0.0000 C   0  0  0  0  0  0  0  0  0  0  0  0
   10.2570   -0.6449    0.0000 C   0  0  0  0  0  0  0  0  0  0  0  0
  1  2  2  0
  2  3  1  0
  3  4  2  0
  3  5  1  0
  5  6  1  0
  6  7  2  0
  7  8  1  0
  8  9  2  0
  9 10  1  0
 10 11  1  0
 11 12  2  0
 12 13  1  0
 13 14  2  0
 14 15  1  0
 15 16  1  0
 16 17  1  0
 17 18  2  0
 18 19  1  0
 19 20  2  0
 20 21  1  0
 21 22  2  0
 14 23  1  0
 23 24  1  0
 23 25  2  0
  9 26  1  0
 26 27  2  0
 27 28  1  0
 28 29  2  0
 29 30  1  0
 30 31  2  0
 31 32  1  0
 32 33  1  0
 33 34  1  0
 34 35  1  0
 35 36  1  0
 36 37  1  0
 37 38  1  0
 38 39  1  0
 39 40  1  0
 31  6  1  0
 40 35  1  0
 29  8  1  0
 25 11  1  0
 22 17  1  0
M  END
>  <BrandName>  (13) 


>  <Applicants>  (13) 
Black Diamond Therapeutics

>  <CHEMBL_ID>  (13) 
CHEMBL4650279

>  <Canonical_Smiles>  (13) 
C=CC(=O)Nc1cc2c(Nc3ccc(OCc4ccccn4)c(Cl)c3)ncnc2cc1OCCN1CCOCC1

>  <Chirality>  (13) 
Achiral Molecule

>  <First_Approval>  (13) 
nan

>  <Phase>  (13) 
1.0

>  <SC_Patent>  (13) 
nan

>  <Synonyms>  (13) 
BDTX-189 | BDTX189 | TUXOBERTINIB

>  <Withdrawn>  (13) 
nan

>  <Indications>  (13) 
nan

>  <Type>  (13) 
nan

>  <targets_id>  (13) 
nan

>  <Inchi>  (13) 
InChI=1S/C29H29ClN6O4/c1-2-28(37)35-25-16-22-24(17-27(25)39-14-11-36-9-12-38-13-10-36)32-19-33-29(22)34-20-6-7-26(23(30)15-20)40-18-21-5-3-4-8-31-21/h2-8,15-17,19H,1,9-14,18H2,(H,35,37)(H,32,33,34)

>  <stdInchikey>  (13) 
HIBPKFXWOPYJPZ-UHFFFAOYSA-N

>  <csid>  (13) 
112747183

>  <Links>  (13) 
|http://www.chemspider.com/Chemical-Structure.112747183.html|https://www.ebi.ac.uk/chembldb/compound/inspect/CHEMBL4650279|https://pubchem.ncbi.nlm.nih.gov/compound/154824631|https://precision.fda.gov/uniisearch/srs/unii/6CE2107J4T

>  <LinkName>  (13) 
|ChemSpider|ChEMBL|PubChem|FDA SRS

>  <lig_pdb_ID>  (13) 


>  <pdb_IDs>  (13) 


>  <indicationDB>  (13) 


>  <uniprotId>  (13) 


>  <indicationG2P>  (13) 


>  <MW>  (13) 
560.2

>  <HBA>  (13) 
9

>  <HBD>  (13) 
2

>  <NRB>  (13) 
11

>  <TPSA>  (13) 
110.7

>  <LogP>  (13) 
4.8

>  <RoF>  (13) 
1

>  <Melting point>  (13) 
nan

>  <Targets>  (13) 
nan

>  <Kinase families>  (13) 


>  <FDA_approved>  (13) 


$$$$
Zeteletinib
     RDKit          2D

 36 39  0  0  0  0  0  0  0  0999 V2000
   -9.2409   -1.1265    0.0000 C   0  0  0  0  0  0  0  0  0  0  0  0
   -9.1604    0.3713    0.0000 C   0  0  0  0  0  0  0  0  0  0  0  0
   -9.0799    1.8691    0.0000 C   0  0  0  0  0  0  0  0  0  0  0  0
   -7.6626    0.2908    0.0000 C   0  0  0  0  0  0  0  0  0  0  0  0
   -6.8473   -0.9683    0.0000 C   0  0  0  0  0  0  0  0  0  0  0  0
   -5.3979   -0.5820    0.0000 C   0  0  0  0  0  0  0  0  0  0  0  0
   -4.2334   -1.5275    0.0000 N   0  0  0  0  0  0  0  0  0  0  0  0
   -2.8323   -0.9918    0.0000 C   0  0  0  0  0  0  0  0  0  0  0  0
   -2.5957    0.4894    0.0000 O   0  0  0  0  0  0  0  0  0  0  0  0
   -1.6679   -1.9373    0.0000 C   0  0  0  0  0  0  0  0  0  0  0  0
   -0.2668   -1.4016    0.0000 C   0  0  0  0  0  0  0  0  0  0  0  0
    0.8977   -2.3471    0.0000 C   0  0  0  0  0  0  0  0  0  0  0  0
    2.2988   -1.8114    0.0000 N   0  0  0  0  0  0  0  0  0  0  0  0
    2.5354   -0.3302    0.0000 C   0  0  0  0  0  0  0  0  0  0  0  0
    1.3709    0.6153    0.0000 C   0  0  0  0  0  0  0  0  0  0  0  0
   -0.0302    0.0796    0.0000 C   0  0  0  0  0  0  0  0  0  0  0  0
    3.9365    0.2055    0.0000 C   0  0  0  0  0  0  0  0  0  0  0  0
    5.1009   -0.7400    0.0000 C   0  0  0  0  0  0  0  0  0  0  0  0
    6.5020   -0.2043    0.0000 C   0  0  0  0  0  0  0  0  0  0  0  0
    7.6665   -1.1498    0.0000 C   0  0  0  0  0  0  0  0  0  0  0  0
    9.0676   -0.6141    0.0000 C   0  0  0  0  0  0  0  0  0  0  0  0
   10.2320   -1.5596    0.0000 O   0  0  0  0  0  0  0  0  0  0  0  0
    9.9954   -3.0409    0.0000 C   0  0  0  0  0  0  0  0  0  0  0  0
    9.3042    0.8671    0.0000 C   0  0  0  0  0  0  0  0  0  0  0  0
    8.1397    1.8126    0.0000 C   0  0  0  0  0  0  0  0  0  0  0  0
    6.7386    1.2769    0.0000 C   0  0  0  0  0  0  0  0  0  0  0  0
    5.5742    2.2224    0.0000 N   0  0  0  0  0  0  0  0  0  0  0  0
    4.1731    1.6867    0.0000 C   0  0  0  0  0  0  0  0  0  0  0  0
   10.7053    1.4028    0.0000 O   0  0  0  0  0  0  0  0  0  0  0  0
   10.9419    2.8840    0.0000 C   0  0  0  0  0  0  0  0  0  0  0  0
   -5.3174    0.9159    0.0000 O   0  0  0  0  0  0  0  0  0  0  0  0
   -6.7171    1.4553    0.0000 N   0  0  0  0  0  0  0  0  0  0  0  0
  -10.6583    0.4518    0.0000 C   0  0  0  0  0  0  0  0  0  0  0  0
  -12.1561    0.5323    0.0000 F   0  0  0  0  0  0  0  0  0  0  0  0
  -10.7387   -1.0461    0.0000 F   0  0  0  0  0  0  0  0  0  0  0  0
  -10.5778    1.9496    0.0000 F   0  0  0  0  0  0  0  0  0  0  0  0
  1  2  1  0
  2  3  1  0
  2  4  1  0
  4  5  1  0
  5  6  2  0
  6  7  1  0
  7  8  1  0
  8  9  2  0
  8 10  1  0
 10 11  1  0
 11 12  2  0
 12 13  1  0
 13 14  2  0
 14 15  1  0
 15 16  2  0
 14 17  1  0
 17 18  2  0
 18 19  1  0
 19 20  2  0
 20 21  1  0
 21 22  1  0
 22 23  1  0
 21 24  2  0
 24 25  1  0
 25 26  2  0
 26 27  1  0
 27 28  2  0
 24 29  1  0
 29 30  1  0
  6 31  1  0
 31 32  1  0
  2 33  1  0
 33 34  1  0
 33 35  1  0
 33 36  1  0
 32  4  2  0
 16 11  1  0
 28 17  1  0
 26 19  1  0
M  END
>  <BrandName>  (14) 


>  <Applicants>  (14) 
Daiichi Sankyo

>  <CHEMBL_ID>  (14) 
CHEMBL5095497

>  <Canonical_Smiles>  (14) 
CC(C)(C1C=C(NC(=O)CC2C=NC(=CC=2)C2C=C3C=C(OC)C(=CC3=NC=2)OC)ON=1)C(F)(F)F

>  <Chirality>  (14) 
Achiral Molecule

>  <First_Approval>  (14) 
nan

>  <Phase>  (14) 
1.0

>  <SC_Patent>  (14) 
nan

>  <Synonyms>  (14) 
BOS-172738 | BOS172738 | CAXM-1190B | DS-5010B | RET INHIBITOR DS-5010 | ZETELETINIB

>  <Withdrawn>  (14) 
nan

>  <Indications>  (14) 
nan

>  <Type>  (14) 
nan

>  <targets_id>  (14) 
nan

>  <Inchi>  (14) 
InChI=1S/C25H23F3N4O4/c1-24(2,25(26,27)28)21-11-23(36-32-21)31-22(33)7-14-5-6-17(29-12-14)16-8-15-9-19(34-3)20(35-4)10-18(15)30-13-16/h5-6,8-13H,7H2,1-4H3,(H,31,33)

>  <stdInchikey>  (14) 
KOLQINCWMXQEOF-UHFFFAOYSA-N

>  <csid>  (14) 
115007145

>  <Links>  (14) 
|http://www.chemspider.com/Chemical-Structure.115007145.html|https://www.ebi.ac.uk/chembldb/compound/inspect/CHEMBL5095497|https://pubchem.ncbi.nlm.nih.gov/compound/134391533|https://precision.fda.gov/uniisearch/srs/unii/EP0P7SHM0U|https://www.bindingdb.org/bind/chemsearch/marvin/MolStructure.jsp?monomerid=475603

>  <LinkName>  (14) 
|ChemSpider|ChEMBL|PubChem|FDA SRS|BindingDB

>  <lig_pdb_ID>  (14) 


>  <pdb_IDs>  (14) 


>  <indicationDB>  (14) 


>  <uniprotId>  (14) 


>  <indicationG2P>  (14) 


>  <MW>  (14) 
500.2

>  <HBA>  (14) 
7

>  <HBD>  (14) 
1

>  <NRB>  (14) 
7

>  <TPSA>  (14) 
99.4

>  <LogP>  (14) 
5.3

>  <RoF>  (14) 
2

>  <Melting point>  (14) 
nan

>  <Targets>  (14) 
nan

>  <Kinase families>  (14) 


>  <FDA_approved>  (14) 


$$$$
Tafetinib
     RDKit          2D

 31 34  0  0  0  0  0  0  0  0999 V2000
  -10.4357    0.6696    0.0000 C   0  0  0  0  0  0  0  0  0  0  0  0
   -9.0343    1.2044    0.0000 C   0  0  0  0  0  0  0  0  0  0  0  0
   -7.8704    0.2582    0.0000 N   0  0  0  0  0  0  0  0  0  0  0  0
   -8.1079   -1.2229    0.0000 C   0  0  0  0  0  0  0  0  0  0  0  0
   -9.5093   -1.7577    0.0000 C   0  0  0  0  0  0  0  0  0  0  0  0
   -6.4690    0.7931    0.0000 C   0  0  0  0  0  0  0  0  0  0  0  0
   -5.3051   -0.1531    0.0000 C   0  0  0  0  0  0  0  0  0  0  0  0
   -3.9037    0.3817    0.0000 N   0  0  0  0  0  0  0  0  0  0  0  0
   -2.7398   -0.5645    0.0000 C   0  0  0  0  0  0  0  0  0  0  0  0
   -2.9773   -2.0456    0.0000 O   0  0  0  0  0  0  0  0  0  0  0  0
   -1.3384   -0.0296    0.0000 C   0  0  0  0  0  0  0  0  0  0  0  0
   -0.9474    1.4185    0.0000 C   0  0  0  0  0  0  0  0  0  0  0  0
    0.5507    1.4942    0.0000 N   0  0  0  0  0  0  0  0  0  0  0  0
    1.0855    0.0928    0.0000 C   0  0  0  0  0  0  0  0  0  0  0  0
   -0.0820   -0.8490    0.0000 C   0  0  0  0  0  0  0  0  0  0  0  0
    0.1498   -2.3310    0.0000 C   0  0  0  0  0  0  0  0  0  0  0  0
    1.5492   -2.8712    0.0000 C   0  0  0  0  0  0  0  0  0  0  0  0
    2.7167   -1.9295    0.0000 C   0  0  0  0  0  0  0  0  0  0  0  0
    2.4849   -0.4475    0.0000 C   0  0  0  0  0  0  0  0  0  0  0  0
    3.6524    0.4943    0.0000 C   0  0  0  0  0  0  0  0  0  0  0  0
    5.1006    0.1032    0.0000 C   0  0  0  0  0  0  0  0  0  0  0  0
    5.7790   -1.2346    0.0000 C   0  0  0  0  0  0  0  0  0  0  0  0
    7.2768   -1.3160    0.0000 C   0  0  0  0  0  0  0  0  0  0  0  0
    8.0961   -0.0595    0.0000 C   0  0  0  0  0  0  0  0  0  0  0  0
    7.4177    1.2783    0.0000 C   0  0  0  0  0  0  0  0  0  0  0  0
    5.9199    1.3597    0.0000 C   0  0  0  0  0  0  0  0  0  0  0  0
    4.9782    2.5272    0.0000 N   0  0  0  0  0  0  0  0  0  0  0  0
    3.5768    1.9923    0.0000 C   0  0  0  0  0  0  0  0  0  0  0  0
    2.3203    2.8117    0.0000 O   0  0  0  0  0  0  0  0  0  0  0  0
    7.9552   -2.6538    0.0000 F   0  0  0  0  0  0  0  0  0  0  0  0
   -1.8892    2.5861    0.0000 C   0  0  0  0  0  0  0  0  0  0  0  0
  1  2  1  0
  2  3  1  0
  3  4  1  0
  4  5  1  0
  3  6  1  0
  6  7  1  0
  7  8  1  0
  8  9  1  0
  9 10  2  0
  9 11  1  0
 11 12  2  0
 12 13  1  0
 13 14  1  0
 14 15  2  0
 15 16  1  0
 16 17  1  0
 17 18  1  0
 18 19  1  0
 19 20  2  0
 20 21  1  0
 21 22  2  0
 22 23  1  0
 23 24  2  0
 24 25  1  0
 25 26  2  0
 26 27  1  0
 27 28  1  0
 28 29  2  0
 23 30  1  0
 12 31  1  0
 15 11  1  0
 19 14  1  0
 28 20  1  0
 26 21  1  0
M  END
>  <BrandName>  (15) 


>  <Applicants>  (15) 
Nanjing Yoko Biomedical

>  <CHEMBL_ID>  (15) 
CHEMBL2180602

>  <Canonical_Smiles>  (15) 
CCN(CC)CCNC(=O)c1c([nH]c\2c1CCC/C2=C/3\c4cc(ccc4NC3=O)F)C

>  <Chirality>  (15) 
Achiral Molecule

>  <First_Approval>  (15) 
nan

>  <Phase>  (15) 
1.0

>  <SC_Patent>  (15) 
nan

>  <Synonyms>  (15) 
SIM 010603 | SIM-010603 | TAFETINIB

>  <Withdrawn>  (15) 
nan

>  <Indications>  (15) 
nan

>  <Type>  (15) 
nan

>  <targets_id>  (15) 
P35968|P35916|P17948

>  <Inchi>  (15) 
InChI=1S/C24H29FN4O2/c1-4-29(5-2)12-11-26-23(30)20-14(3)27-22-16(20)7-6-8-17(22)21-18-13-15(25)9-10-19(18)28-24(21)31/h9-10,13,27H,4-8,11-12H2,1-3H3,(H,26,30)(H,28,31)/b21-17-

>  <stdInchikey>  (15) 
KGSRYTUWXUESJK-FXBPSFAMSA-N

>  <csid>  (15) 
28664989

>  <Links>  (15) 
|http://www.chemspider.com/Chemical-Structure.28664989.html|https://www.ebi.ac.uk/chembldb/compound/inspect/CHEMBL2180602|https://pubchem.ncbi.nlm.nih.gov/compound/56935577|https://www.guidetopharmacology.org/GRAC/LigandDisplayForward?9921|https://zinc15.docking.org/substances/ZINC000095575309|https://precision.fda.gov/uniisearch/srs/unii/H4X2M2NN5N|https://www.bindingdb.org/bind/chemsearch/marvin/MolStructure.jsp?monomerid=50399535

>  <LinkName>  (15) 
|ChemSpider|ChEMBL|PubChem|Guide to Pharmacology|ZINC|FDA SRS|BindingDB

>  <lig_pdb_ID>  (15) 


>  <pdb_IDs>  (15) 


>  <indicationDB>  (15) 


>  <uniprotId>  (15) 


>  <indicationG2P>  (15) 
None

>  <MW>  (15) 
424.2

>  <HBA>  (15) 
3

>  <HBD>  (15) 
3

>  <NRB>  (15) 
6

>  <TPSA>  (15) 
77.2

>  <LogP>  (15) 
3.7

>  <RoF>  (15) 
0

>  <Melting point>  (15) 
nan

>  <Targets>  (15) 
KDR; FLT4; FLT1

>  <Kinase families>  (15) 
Tyr

>  <FDA_approved>  (15) 


$$$$
Lorpucitinib
     RDKit          2D

 30 33  0  0  0  0  0  0  0  0999 V2000
    6.1265    0.8029    0.0000 C   0  0  0  0  0  0  0  0  0  0  0  0
    6.8587   -0.5062    0.0000 C   0  0  0  0  0  0  0  0  0  0  0  0
    7.5909   -1.8154    0.0000 C   0  0  0  0  0  0  0  0  0  0  0  0
    8.1679    0.2260    0.0000 O   0  0  0  0  0  0  0  0  0  0  0  0
    5.5496   -1.2385    0.0000 C   0  0  0  0  0  0  0  0  0  0  0  0
    4.2609   -0.4708    0.0000 N   0  0  0  0  0  0  0  0  0  0  0  0
    2.9517   -1.2030    0.0000 C   0  0  0  0  0  0  0  0  0  0  0  0
    2.9313   -2.7029    0.0000 O   0  0  0  0  0  0  0  0  0  0  0  0
    1.6630   -0.4354    0.0000 C   0  0  0  0  0  0  0  0  0  0  0  0
    0.3539   -1.1676    0.0000 C   0  0  0  0  0  0  0  0  0  0  0  0
    0.1768   -2.6571    0.0000 N   0  0  0  0  0  0  0  0  0  0  0  0
   -1.2946   -2.9489    0.0000 C   0  0  0  0  0  0  0  0  0  0  0  0
   -2.0622   -4.2376    0.0000 C   0  0  0  0  0  0  0  0  0  0  0  0
   -3.5621   -4.2172    0.0000 N   0  0  0  0  0  0  0  0  0  0  0  0
   -4.2943   -2.9080    0.0000 C   0  0  0  0  0  0  0  0  0  0  0  0
   -5.7571   -2.5762    0.0000 N   0  0  0  0  0  0  0  0  0  0  0  0
   -5.8936   -1.0824    0.0000 C   0  0  0  0  0  0  0  0  0  0  0  0
   -4.5150   -0.4910    0.0000 C   0  0  0  0  0  0  0  0  0  0  0  0
   -3.5266   -1.6193    0.0000 C   0  0  0  0  0  0  0  0  0  0  0  0
   -2.0268   -1.6398    0.0000 C   0  0  0  0  0  0  0  0  0  0  0  0
   -1.0080   -0.5389    0.0000 N   0  0  0  0  0  0  0  0  0  0  0  0
   -1.2998    0.9325    0.0000 C   0  0  0  0  0  0  0  0  0  0  0  0
   -0.1715    1.9209    0.0000 C   0  0  0  0  0  0  0  0  0  0  0  0
   -0.4633    3.3922    0.0000 C   0  0  0  0  0  0  0  0  0  0  0  0
   -1.8835    3.8751    0.0000 C   0  0  0  0  0  0  0  0  0  0  0  0
   -2.1753    5.3465    0.0000 C   0  0  0  0  0  0  0  0  0  0  0  0
   -1.0470    6.3349    0.0000 C   0  0  0  0  0  0  0  0  0  0  0  0
    0.0813    7.3233    0.0000 N   0  0  0  0  0  0  0  0  0  0  0  0
   -3.0118    2.8867    0.0000 C   0  0  0  0  0  0  0  0  0  0  0  0
   -2.7199    1.4154    0.0000 C   0  0  0  0  0  0  0  0  0  0  0  0
  1  2  1  0
  2  3  1  0
  2  4  1  0
  2  5  1  0
  5  6  1  0
  6  7  1  0
  7  8  2  0
  7  9  1  0
  9 10  1  0
 10 11  2  0
 11 12  1  0
 12 13  2  0
 13 14  1  0
 14 15  1  0
 15 16  2  0
 16 17  1  0
 17 18  2  0
 18 19  1  0
 19 20  2  0
 20 21  1  0
 22 21  1  1
 22 23  1  0
 23 24  1  0
 24 25  1  0
 25 26  1  6
 26 27  1  0
 27 28  3  0
 25 29  1  0
 29 30  1  0
 21 10  1  0
 30 22  1  0
 20 12  1  0
 19 15  1  0
M  END
>  <BrandName>  (16) 


>  <Applicants>  (16) 
Janssen

>  <CHEMBL_ID>  (16) 
nan

>  <Canonical_Smiles>  (16) 
CC(C)(O)CNC(=O)CC1=NC2=CNC3=NC=CC3=C2N1[C@@H]1CC[C@@H](CC#N)CC1

>  <Chirality>  (16) 
nan

>  <First_Approval>  (16) 
nan

>  <Phase>  (16) 
1.0

>  <SC_Patent>  (16) 
nan

>  <Synonyms>  (16) 
|LORPUCITINIB

>  <Withdrawn>  (16) 
nan

>  <Indications>  (16) 
nan

>  <Type>  (16) 
nan

>  <targets_id>  (16) 
nan

>  <Inchi>  (16) 
InChI=1S/C22H28N6O2/c1-22(2,30)13-26-19(29)11-18-27-17-12-25-21-16(8-10-24-21)20(17)28(18)15-5-3-14(4-6-15)7-9-23/h8,10,12,14-15,30H,3-7,11,13H2,1-2H3,(H,24,25)(H,26,29)/t14-,15-

>  <stdInchikey>  (16) 
NJKMSBSVJSQUBU-UHFFFAOYSA-N

>  <csid>  (16) 
88297963

>  <Links>  (16) 
|http://www.chemspider.com/Chemical-Structure.88297963.html|https://pubchem.ncbi.nlm.nih.gov/compound/134611548|https://www.bindingdb.org/bind/chemsearch/marvin/MolStructure.jsp?monomerid=505107

>  <LinkName>  (16) 
|ChemSpider|PubChem|BindingDB

>  <lig_pdb_ID>  (16) 


>  <pdb_IDs>  (16) 


>  <indicationDB>  (16) 


>  <uniprotId>  (16) 


>  <indicationG2P>  (16) 


>  <MW>  (16) 
408.2

>  <HBA>  (16) 
6

>  <HBD>  (16) 
3

>  <NRB>  (16) 
6

>  <TPSA>  (16) 
119.6

>  <LogP>  (16) 
2.9

>  <RoF>  (16) 
0

>  <Melting point>  (16) 
nan

>  <Targets>  (16) 
nan

>  <Kinase families>  (16) 


>  <FDA_approved>  (16) 


$$$$
Zeteletinib 
     RDKit          2D

 14 14  0  0  0  0  0  0  0  0999 V2000
    1.6251   -1.1685    0.0000 C   0  0  0  0  0  0  0  0  0  0  0  0
    0.1853   -1.5892    0.0000 C   0  0  0  0  0  0  0  0  0  0  0  0
   -0.8989   -0.5527    0.0000 C   0  0  0  0  0  0  0  0  0  0  0  0
   -0.5434    0.9046    0.0000 C   0  0  0  0  0  0  0  0  0  0  0  0
    0.8964    1.3253    0.0000 C   0  0  0  0  0  0  0  0  0  0  0  0
    1.9807    0.2887    0.0000 C   0  0  0  0  0  0  0  0  0  0  0  0
    3.4205    0.7094    0.0000 C   0  0  0  0  0  0  0  0  0  0  0  0
    4.5047   -0.3271    0.0000 C   0  0  0  0  0  0  0  0  0  0  0  0
    5.9445    0.0936    0.0000 O   0  0  0  0  0  0  0  0  0  0  0  0
   -2.3387   -0.9734    0.0000 O   0  0  0  0  0  0  0  0  0  0  0  0
   -3.4230    0.0632    0.0000 C   0  0  0  0  0  0  0  0  0  0  0  0
   -4.5072    1.0997    0.0000 F   0  0  0  0  0  0  0  0  0  0  0  0
   -4.4595   -1.0211    0.0000 F   0  0  0  0  0  0  0  0  0  0  0  0
   -2.3864    1.1474    0.0000 F   0  0  0  0  0  0  0  0  0  0  0  0
  1  2  2  0
  2  3  1  0
  3  4  2  0
  4  5  1  0
  5  6  2  0
  6  7  1  0
  7  8  1  0
  8  9  1  0
  3 10  1  0
 10 11  1  0
 11 12  1  0
 11 13  1  0
 11 14  1  0
  6  1  1  0
M  END
>  <BrandName>  (17) 


>  <Applicants>  (17) 
('Boston Pharmaceuticals',)

>  <CHEMBL_ID>  (17) 
nan

>  <Canonical_Smiles>  (17) 
C1=CC(=CC=C1CCO)OC(F)(F)F

>  <Chirality>  (17) 
nan

>  <First_Approval>  (17) 
nan

>  <Phase>  (17) 
1.0

>  <SC_Patent>  (17) 
nan

>  <Synonyms>  (17) 
|BOS-172738|BOS172738 HEMIADIPATE|DS5010|BOS172738|DS-5010

>  <Withdrawn>  (17) 
nan

>  <Indications>  (17) 
nan

>  <Type>  (17) 
nan

>  <targets_id>  (17) 
nan

>  <Inchi>  (17) 
InChI=1S/C25H23F3N4O4/c1-24(2,25(26,27)28)21-11-23(36-32-21)31-22(33)7-14-5-6-17(29-12-14)16-8-15-9-19(34-3)20(35-4)10-18(15)30-13-16/h5-6,8-13H,7H2,1-4H3,(H,31,33)

>  <stdInchikey>  (17) 
RILZRCJGXSFXNE-UHFFFAOYSA-N

>  <csid>  (17) 
8926090

>  <Links>  (17) 
|http://www.chemspider.com/Chemical-Structure.8926090.html|https://pubchem.ncbi.nlm.nih.gov/compound/10750766|https://zinc15.docking.org/substances/ZINC000025724370

>  <LinkName>  (17) 
|ChemSpider|PubChem|ZINC

>  <lig_pdb_ID>  (17) 


>  <pdb_IDs>  (17) 


>  <indicationDB>  (17) 


>  <uniprotId>  (17) 


>  <indicationG2P>  (17) 


>  <MW>  (17) 
206.1

>  <HBA>  (17) 
2

>  <HBD>  (17) 
1

>  <NRB>  (17) 
3

>  <TPSA>  (17) 
29.5

>  <LogP>  (17) 
2.1

>  <RoF>  (17) 
0

>  <Melting point>  (17) 
nan

>  <Targets>  (17) 
nan

>  <Kinase families>  (17) 


>  <FDA_approved>  (17) 


$$$$
Theliatinib
     RDKit          2D

 33 37  0  0  0  0  0  0  0  0999 V2000
   -6.4669    4.5457    0.0000 C   0  0  0  0  0  0  0  0  0  0  0  0
   -6.6285    3.0544    0.0000 N   0  0  0  0  0  0  0  0  0  0  0  0
   -7.9299    2.3087    0.0000 C   0  0  0  0  0  0  0  0  0  0  0  0
   -7.6228    0.8404    0.0000 C   0  0  0  0  0  0  0  0  0  0  0  0
   -6.1316    0.6788    0.0000 C   0  0  0  0  0  0  0  0  0  0  0  0
   -5.5170    2.0471    0.0000 C   0  0  0  0  0  0  0  0  0  0  0  0
   -4.0258    1.8855    0.0000 C   0  0  0  0  0  0  0  0  0  0  0  0
   -3.7187    0.4173    0.0000 N   0  0  0  0  0  0  0  0  0  0  0  0
   -5.0201   -0.3285    0.0000 C   0  0  0  0  0  0  0  0  0  0  0  0
   -2.3503   -0.1973    0.0000 C   0  0  0  0  0  0  0  0  0  0  0  0
   -1.1339    0.6805    0.0000 O   0  0  0  0  0  0  0  0  0  0  0  0
   -2.1984   -1.6895    0.0000 N   0  0  0  0  0  0  0  0  0  0  0  0
   -0.8300   -2.3041    0.0000 C   0  0  0  0  0  0  0  0  0  0  0  0
    0.3863   -1.4263    0.0000 C   0  0  0  0  0  0  0  0  0  0  0  0
    1.7547   -2.0409    0.0000 C   0  0  0  0  0  0  0  0  0  0  0  0
    1.9066   -3.5332    0.0000 C   0  0  0  0  0  0  0  0  0  0  0  0
    0.6903   -4.4109    0.0000 C   0  0  0  0  0  0  0  0  0  0  0  0
   -0.6781   -3.7964    0.0000 C   0  0  0  0  0  0  0  0  0  0  0  0
   -1.8944   -4.6741    0.0000 O   0  0  0  0  0  0  0  0  0  0  0  0
   -1.7425   -6.1664    0.0000 C   0  0  0  0  0  0  0  0  0  0  0  0
    3.2750   -4.1477    0.0000 N   0  0  0  0  0  0  0  0  0  0  0  0
    4.4914   -3.2700    0.0000 C   0  0  0  0  0  0  0  0  0  0  0  0
    4.3394   -1.7777    0.0000 N   0  0  0  0  0  0  0  0  0  0  0  0
    2.9711   -1.1631    0.0000 C   0  0  0  0  0  0  0  0  0  0  0  0
    2.8191    0.3291    0.0000 N   0  0  0  0  0  0  0  0  0  0  0  0
    4.0355    1.2069    0.0000 C   0  0  0  0  0  0  0  0  0  0  0  0
    5.4038    0.5923    0.0000 C   0  0  0  0  0  0  0  0  0  0  0  0
    6.6202    1.4701    0.0000 C   0  0  0  0  0  0  0  0  0  0  0  0
    6.4682    2.9624    0.0000 C   0  0  0  0  0  0  0  0  0  0  0  0
    5.0999    3.5769    0.0000 C   0  0  0  0  0  0  0  0  0  0  0  0
    3.8835    2.6992    0.0000 C   0  0  0  0  0  0  0  0  0  0  0  0
    4.9479    5.0692    0.0000 C   0  0  0  0  0  0  0  0  0  0  0  0
    4.7960    6.5615    0.0000 C   0  0  0  0  0  0  0  0  0  0  0  0
  1  2  1  0
  2  3  1  0
  3  4  1  0
  5  4  1  1
  5  6  1  0
  6  7  1  1
  7  8  1  0
  8  9  1  0
  8 10  1  0
 10 11  2  0
 10 12  1  0
 12 13  1  0
 13 14  2  0
 14 15  1  0
 15 16  2  0
 16 17  1  0
 17 18  2  0
 18 19  1  0
 19 20  1  0
 16 21  1  0
 21 22  2  0
 22 23  1  0
 23 24  2  0
 24 25  1  0
 25 26  1  0
 26 27  2  0
 27 28  1  0
 28 29  2  0
 29 30  1  0
 30 31  2  0
 30 32  1  0
 32 33  3  0
  6  2  1  0
  9  5  1  0
 18 13  1  0
 24 15  1  0
 31 26  1  0
M  END
>  <BrandName>  (18) 


>  <Applicants>  (18) 
Hutchison MediPharma

>  <CHEMBL_ID>  (18) 
nan

>  <Canonical_Smiles>  (18) 
CN1CC[C@H]2[C@@H]1CN(C2)C(=O)Nc3cc4c(cc3OC)ncnc4Nc5cccc(c5)C#C

>  <Chirality>  (18) 
nan

>  <First_Approval>  (18) 
nan

>  <Phase>  (18) 
1.0

>  <SC_Patent>  (18) 
nan

>  <Synonyms>  (18) 
HMPL-309 | THELIATINIB | XILIERTINIB

>  <Withdrawn>  (18) 
nan

>  <Indications>  (18) 
nan

>  <Type>  (18) 
nan

>  <targets_id>  (18) 
nan

>  <Inchi>  (18) 
InChI=1S/C25H26N6O2/c1-4-16-6-5-7-18(10-16)28-24-19-11-21(23(33-3)12-20(19)26-15-27-24)29-25(32)31-13-17-8-9-30(2)22(17)14-31/h1,5-7,10-12,15,17,22H,8-9,13-14H2,2-3H3,(H,29,32)(H,26,27,28)/t17-,22+/m1/s1

>  <stdInchikey>  (18) 
FSXCKIBROURMFT-VGSWGCGISA-N

>  <csid>  (18) 
68025614

>  <Links>  (18) 
|http://www.chemspider.com/Chemical-Structure.68025614.html|https://www.ebi.ac.uk/chembldb/compound/inspect/CHEMBL5314410|https://pubchem.ncbi.nlm.nih.gov/compound/54759275|https://zinc15.docking.org/substances/ZINC000113384840|https://precision.fda.gov/uniisearch/srs/unii/6ZZ3B7NZ0B

>  <LinkName>  (18) 
|ChemSpider|ChEMBL|PubChem|ZINC|FDA SRS

>  <lig_pdb_ID>  (18) 


>  <pdb_IDs>  (18) 


>  <indicationDB>  (18) 


>  <uniprotId>  (18) 


>  <indicationG2P>  (18) 


>  <MW>  (18) 
442.2

>  <HBA>  (18) 
6

>  <HBD>  (18) 
2

>  <NRB>  (18) 
4

>  <TPSA>  (18) 
82.6

>  <LogP>  (18) 
3.5

>  <RoF>  (18) 
0

>  <Melting point>  (18) 
nan

>  <Targets>  (18) 
nan

>  <Kinase families>  (18) 


>  <FDA_approved>  (18) 


$$$$
Selatinib
     RDKit          2D

 39 43  0  0  0  0  0  0  0  0999 V2000
   -4.8068    7.6802    0.0000 C   0  0  0  0  0  0  0  0  0  0  0  0
   -5.8776    6.6298    0.0000 S   0  0  0  0  0  0  0  0  0  0  0  0
   -7.3227    7.0319    0.0000 O   0  0  0  0  0  0  0  0  0  0  0  0
   -5.5033    5.1773    0.0000 C   0  0  0  0  0  0  0  0  0  0  0  0
   -6.5741    4.1268    0.0000 C   0  0  0  0  0  0  0  0  0  0  0  0
   -6.1998    2.6743    0.0000 N   0  0  0  0  0  0  0  0  0  0  0  0
   -7.2706    1.6238    0.0000 C   0  0  0  0  0  0  0  0  0  0  0  0
   -6.8963    0.1713    0.0000 C   0  0  0  0  0  0  0  0  0  0  0  0
   -7.8514   -0.9853    0.0000 C   0  0  0  0  0  0  0  0  0  0  0  0
   -7.0465   -2.2511    0.0000 C   0  0  0  0  0  0  0  0  0  0  0  0
   -5.5940   -1.8768    0.0000 C   0  0  0  0  0  0  0  0  0  0  0  0
   -5.5011   -0.3797    0.0000 O   0  0  0  0  0  0  0  0  0  0  0  0
   -4.4374   -2.8319    0.0000 C   0  0  0  0  0  0  0  0  0  0  0  0
   -4.6862   -4.3111    0.0000 C   0  0  0  0  0  0  0  0  0  0  0  0
   -3.5296   -5.2663    0.0000 C   0  0  0  0  0  0  0  0  0  0  0  0
   -2.1242   -4.7422    0.0000 C   0  0  0  0  0  0  0  0  0  0  0  0
   -1.8753   -3.2630    0.0000 C   0  0  0  0  0  0  0  0  0  0  0  0
   -3.0319   -2.3078    0.0000 C   0  0  0  0  0  0  0  0  0  0  0  0
   -0.4698   -2.7389    0.0000 C   0  0  0  0  0  0  0  0  0  0  0  0
    0.6868   -3.6940    0.0000 N   0  0  0  0  0  0  0  0  0  0  0  0
    0.4379   -5.1732    0.0000 C   0  0  0  0  0  0  0  0  0  0  0  0
   -0.9676   -5.6973    0.0000 N   0  0  0  0  0  0  0  0  0  0  0  0
   -0.2210   -1.2597    0.0000 N   0  0  0  0  0  0  0  0  0  0  0  0
    1.1845   -0.7356    0.0000 C   0  0  0  0  0  0  0  0  0  0  0  0
    2.3411   -1.6907    0.0000 C   0  0  0  0  0  0  0  0  0  0  0  0
    3.7466   -1.1666    0.0000 C   0  0  0  0  0  0  0  0  0  0  0  0
    3.9954    0.3126    0.0000 C   0  0  0  0  0  0  0  0  0  0  0  0
    2.8388    1.2677    0.0000 C   0  0  0  0  0  0  0  0  0  0  0  0
    1.4333    0.7436    0.0000 C   0  0  0  0  0  0  0  0  0  0  0  0
    3.0877    2.7469    0.0000 Cl  0  0  0  0  0  0  0  0  0  0  0  0
    5.4009    0.8367    0.0000 O   0  0  0  0  0  0  0  0  0  0  0  0
    6.5575   -0.1184    0.0000 C   0  0  0  0  0  0  0  0  0  0  0  0
    7.9630    0.4056    0.0000 C   0  0  0  0  0  0  0  0  0  0  0  0
    9.1196   -0.5495    0.0000 C   0  0  0  0  0  0  0  0  0  0  0  0
   10.5250   -0.0254    0.0000 C   0  0  0  0  0  0  0  0  0  0  0  0
   10.7739    1.4538    0.0000 C   0  0  0  0  0  0  0  0  0  0  0  0
    9.6173    2.4089    0.0000 C   0  0  0  0  0  0  0  0  0  0  0  0
    8.2118    1.8848    0.0000 C   0  0  0  0  0  0  0  0  0  0  0  0
    9.8661    3.8881    0.0000 F   0  0  0  0  0  0  0  0  0  0  0  0
  1  2  1  0
  2  3  2  0
  2  4  1  0
  4  5  1  0
  5  6  1  0
  6  7  1  0
  7  8  1  0
  8  9  2  0
  9 10  1  0
 10 11  2  0
 11 12  1  0
 11 13  1  0
 13 14  2  0
 14 15  1  0
 15 16  2  0
 16 17  1  0
 17 18  2  0
 17 19  1  0
 19 20  2  0
 20 21  1  0
 21 22  2  0
 19 23  1  0
 23 24  1  0
 24 25  2  0
 25 26  1  0
 26 27  2  0
 27 28  1  0
 28 29  2  0
 28 30  1  0
 27 31  1  0
 31 32  1  0
 32 33  1  0
 33 34  2  0
 34 35  1  0
 35 36  2  0
 36 37  1  0
 37 38  2  0
 37 39  1  0
 12  8  1  0
 18 13  1  0
 22 16  1  0
 29 24  1  0
 38 33  1  0
M  END
>  <BrandName>  (19) 


>  <Applicants>  (19) 
Qilu Pharmaceutical

>  <CHEMBL_ID>  (19) 
nan

>  <Canonical_Smiles>  (19) 
CS(=O)CCNCc1ccc(o1)c2ccc3c(c2)c(ncn3)Nc4ccc(c(c4)Cl)OCc5cccc(c5)F

>  <Chirality>  (19) 
nan

>  <First_Approval>  (19) 
nan

>  <Phase>  (19) 
1.0

>  <SC_Patent>  (19) 
nan

>  <Synonyms>  (19) 


>  <Withdrawn>  (19) 
nan

>  <Indications>  (19) 
nan

>  <Type>  (19) 
nan

>  <targets_id>  (19) 
P00533|P04626

>  <Inchi>  (19) 
InChI=1S/C29H26ClFN4O3S/c1-39(36)12-11-32-16-23-7-10-27(38-23)20-5-8-26-24(14-20)29(34-18-33-26)35-22-6-9-28(25(30)15-22)37-17-19-3-2-4-21(31)13-19/h2-10,13-15,18,32H,11-12,16-17H2,1H3,(H,33,34,35)

>  <stdInchikey>  (19) 
OAMVGUFHZPRXOM-UHFFFAOYSA-N

>  <csid>  (19) 
30841488

>  <Links>  (19) 
|http://www.chemspider.com/Chemical-Structure.30841488.html|https://www.ebi.ac.uk/chembldb/compound/inspect/CHEMBL3040548|https://pubchem.ncbi.nlm.nih.gov/compound/51348455|https://www.guidetopharmacology.org/GRAC/LigandDisplayForward?9919|https://precision.fda.gov/uniisearch/srs/unii/6TLR8U8O3C|https://www.bindingdb.org/bind/chemsearch/marvin/MolStructure.jsp?monomerid=140985

>  <LinkName>  (19) 
|ChemSpider|ChEMBL|PubChem|Guide to Pharmacology|FDA SRS|BindingDB

>  <lig_pdb_ID>  (19) 


>  <pdb_IDs>  (19) 


>  <indicationDB>  (19) 


>  <uniprotId>  (19) 


>  <indicationG2P>  (19) 
None

>  <MW>  (19) 
564.1

>  <HBA>  (19) 
7

>  <HBD>  (19) 
2

>  <NRB>  (19) 
11

>  <TPSA>  (19) 
89.3

>  <LogP>  (19) 
6.5

>  <RoF>  (19) 
2

>  <Melting point>  (19) 
nan

>  <Targets>  (19) 
EGFR; ERBB2

>  <Kinase families>  (19) 
Tyr

>  <FDA_approved>  (19) 


$$$$
Utatrectinib
     RDKit          2D

 28 31  0  0  0  0  0  0  0  0999 V2000
    3.6119   -4.1093    0.0000 C   0  0  0  0  0  0  0  0  0  0  0  0
    3.1602   -2.6789    0.0000 C   0  0  0  0  0  0  0  0  0  0  0  0
    1.6956   -2.3549    0.0000 C   0  0  0  0  0  0  0  0  0  0  0  0
    1.2439   -0.9245    0.0000 N   0  0  0  0  0  0  0  0  0  0  0  0
   -0.2206   -0.6005    0.0000 C   0  0  0  0  0  0  0  0  0  0  0  0
   -1.2336   -1.7069    0.0000 C   0  0  0  0  0  0  0  0  0  0  0  0
   -0.7819   -3.1372    0.0000 C   0  0  0  0  0  0  0  0  0  0  0  0
    0.6827   -3.4613    0.0000 N   0  0  0  0  0  0  0  0  0  0  0  0
   -2.6981   -1.3828    0.0000 F   0  0  0  0  0  0  0  0  0  0  0  0
    4.1731   -1.5726    0.0000 N   0  0  0  0  0  0  0  0  0  0  0  0
    3.7214   -0.1422    0.0000 C   0  0  0  0  0  0  0  0  0  0  0  0
    4.7343    0.9641    0.0000 C   0  0  0  0  0  0  0  0  0  0  0  0
    4.2827    2.3945    0.0000 C   0  0  0  0  0  0  0  0  0  0  0  0
    2.8181    2.7185    0.0000 C   0  0  0  0  0  0  0  0  0  0  0  0
    1.8052    1.6122    0.0000 C   0  0  0  0  0  0  0  0  0  0  0  0
    2.2568    0.1818    0.0000 N   0  0  0  0  0  0  0  0  0  0  0  0
    0.4400    2.2337    0.0000 N   0  0  0  0  0  0  0  0  0  0  0  0
    0.6091    3.7241    0.0000 C   0  0  0  0  0  0  0  0  0  0  0  0
    2.0789    4.0238    0.0000 N   0  0  0  0  0  0  0  0  0  0  0  0
   -0.8653    1.4945    0.0000 C   0  0  0  0  0  0  0  0  0  0  0  0
   -2.2305    2.1159    0.0000 C   0  0  0  0  0  0  0  0  0  0  0  0
   -3.2434    1.0096    0.0000 C   0  0  0  0  0  0  0  0  0  0  0  0
   -2.5042   -0.2957    0.0000 N   0  0  0  0  0  0  0  0  0  0  0  0
   -1.0344    0.0040    0.0000 N   0  0  0  0  0  0  0  0  0  0  0  0
   -4.7338    1.1787    0.0000 O   0  0  0  0  0  0  0  0  0  0  0  0
   -5.6255   -0.0274    0.0000 C   0  0  0  0  0  0  0  0  0  0  0  0
   -7.1159    0.1417    0.0000 C   0  0  0  0  0  0  0  0  0  0  0  0
   -5.0268   -1.4028    0.0000 C   0  0  0  0  0  0  0  0  0  0  0  0
  2  1  1  1
  2  3  1  0
  3  4  2  0
  4  5  1  0
  5  6  2  0
  6  7  1  0
  7  8  2  0
  6  9  1  0
  2 10  1  0
 10 11  1  0
 11 12  2  0
 12 13  1  0
 13 14  2  0
 14 15  1  0
 15 16  2  0
 15 17  1  0
 17 18  1  0
 18 19  2  0
 17 20  1  0
 20 21  1  0
 21 22  2  0
 22 23  1  0
 23 24  1  0
 22 25  1  0
 25 26  1  0
 26 27  1  0
 26 28  1  0
  8  3  1  0
 16 11  1  0
 19 14  1  0
 24 20  2  0
M  END
>  <BrandName>  (20) 


>  <Applicants>  (20) 
Astrazeneca

>  <CHEMBL_ID>  (20) 
CHEMBL3659497

>  <Canonical_Smiles>  (20) 
C[C@@H](c1ncc(cn1)F)Nc2ccc3c(n2)n(cn3)c4cc([nH]n4)OC(C)C

>  <Chirality>  (20) 
Single Stereoisomer

>  <First_Approval>  (20) 
nan

>  <Phase>  (20) 
1.0

>  <SC_Patent>  (20) 
nan

>  <Synonyms>  (20) 
AZD-7451 | UTATRECTINIB

>  <Withdrawn>  (20) 
nan

>  <Indications>  (20) 
nan

>  <Type>  (20) 
nan

>  <targets_id>  (20) 
nan

>  <Inchi>  (20) 
InChI=1S/C18H19FN8O/c1-10(2)28-16-6-15(25-26-16)27-9-22-13-4-5-14(24-18(13)27)23-11(3)17-20-7-12(19)8-21-17/h4-11H,1-3H3,(H,23,24)(H,25,26)/t11-/m0/s1

>  <stdInchikey>  (20) 
AYOOGWWGECJQPI-NSHDSACASA-N

>  <csid>  (20) 
34950479

>  <Links>  (20) 
|http://www.chemspider.com/Chemical-Structure.34950479.html|https://www.ebi.ac.uk/chembldb/compound/inspect/CHEMBL3659497|https://pubchem.ncbi.nlm.nih.gov/compound/25115967|https://www.guidetopharmacology.org/GRAC/LigandDisplayForward?10360|https://zinc15.docking.org/substances/ZINC000096167835|https://precision.fda.gov/uniisearch/srs/unii/VNM956Y27V|https://www.bindingdb.org/bind/chemsearch/marvin/MolStructure.jsp?monomerid=98013

>  <LinkName>  (20) 
|ChemSpider|ChEMBL|PubChem|Guide to Pharmacology|ZINC|FDA SRS|BindingDB

>  <lig_pdb_ID>  (20) 


>  <pdb_IDs>  (20) 


>  <indicationDB>  (20) 


>  <uniprotId>  (20) 


>  <indicationG2P>  (20) 
None

>  <MW>  (20) 
382.2

>  <HBA>  (20) 
8

>  <HBD>  (20) 
2

>  <NRB>  (20) 
6

>  <TPSA>  (20) 
106.4

>  <LogP>  (20) 
3.0

>  <RoF>  (20) 
0

>  <Melting point>  (20) 
nan

>  <Targets>  (20) 
nan

>  <Kinase families>  (20) 


>  <FDA_approved>  (20) 


$$$$
Enitociclib
     RDKit          2D

 28 30  0  0  0  0  0  0  0  0999 V2000
   -1.1230    1.8053    0.0000 C   0  0  0  0  0  0  0  0  0  0  0  0
    0.0426    0.8611    0.0000 O   0  0  0  0  0  0  0  0  0  0  0  0
    1.4430    1.3984    0.0000 C   0  0  0  0  0  0  0  0  0  0  0  0
    1.6779    2.8799    0.0000 C   0  0  0  0  0  0  0  0  0  0  0  0
    3.0784    3.4173    0.0000 C   0  0  0  0  0  0  0  0  0  0  0  0
    3.3133    4.8988    0.0000 F   0  0  0  0  0  0  0  0  0  0  0  0
    4.2439    2.4731    0.0000 C   0  0  0  0  0  0  0  0  0  0  0  0
    4.0091    0.9916    0.0000 C   0  0  0  0  0  0  0  0  0  0  0  0
    2.6086    0.4543    0.0000 C   0  0  0  0  0  0  0  0  0  0  0  0
    2.3737   -1.0272    0.0000 C   0  0  0  0  0  0  0  0  0  0  0  0
    0.9733   -1.5646    0.0000 C   0  0  0  0  0  0  0  0  0  0  0  0
    0.7384   -3.0461    0.0000 C   0  0  0  0  0  0  0  0  0  0  0  0
   -0.6621   -3.5834    0.0000 N   0  0  0  0  0  0  0  0  0  0  0  0
   -1.8276   -2.6392    0.0000 C   0  0  0  0  0  0  0  0  0  0  0  0
   -1.5928   -1.1577    0.0000 C   0  0  0  0  0  0  0  0  0  0  0  0
   -2.7583   -0.2136    0.0000 C   0  0  0  0  0  0  0  0  0  0  0  0
   -2.5234    1.2679    0.0000 C   0  0  0  0  0  0  0  0  0  0  0  0
   -3.6890    2.2121    0.0000 S   0  0  0  0  0  0  0  0  0  0  0  0
   -4.8546    3.1563    0.0000 C   0  0  0  0  0  0  0  0  0  0  0  0
   -4.6332    1.0465    0.0000 N   0  0  0  0  0  0  0  0  0  0  0  0
   -2.7449    3.3777    0.0000 O   0  0  0  0  0  0  0  0  0  0  0  0
   -4.1588   -0.7509    0.0000 C   0  0  0  0  0  0  0  0  0  0  0  0
   -4.3937   -2.2324    0.0000 C   0  0  0  0  0  0  0  0  0  0  0  0
   -3.2281   -3.1766    0.0000 N   0  0  0  0  0  0  0  0  0  0  0  0
    1.9039   -3.9902    0.0000 N   0  0  0  0  0  0  0  0  0  0  0  0
    3.3044   -3.4529    0.0000 C   0  0  0  0  0  0  0  0  0  0  0  0
    3.5393   -1.9714    0.0000 C   0  0  0  0  0  0  0  0  0  0  0  0
    4.9397   -1.4341    0.0000 F   0  0  0  0  0  0  0  0  0  0  0  0
  1  2  1  0
  2  3  1  0
  3  4  2  0
  4  5  1  0
  5  6  1  0
  5  7  2  0
  7  8  1  0
  8  9  2  0
  9 10  1  0
 10 11  2  0
 11 12  1  0
 12 13  1  0
 13 14  1  0
 14 15  2  0
 15 16  1  0
 16 17  1  0
 17 18  1  0
 18 19  1  0
 18 20  2  0
 18 21  2  0
 16 22  2  0
 22 23  1  0
 23 24  2  0
 12 25  2  0
 25 26  1  0
 26 27  2  0
 27 28  1  0
  9  3  1  0
 27 10  1  0
 24 14  1  0
M  END
>  <BrandName>  (21) 


>  <Applicants>  (21) 
('Vincerx Pharma',)

>  <CHEMBL_ID>  (21) 
CHEMBL4756595

>  <Canonical_Smiles>  (21) 
COc1cc(F)ccc1-c1cc(Nc2cc(CS(C)(=N)=O)ccn2)ncc1F

>  <Chirality>  (21) 
Unknown

>  <First_Approval>  (21) 
nan

>  <Phase>  (21) 
1.0

>  <SC_Patent>  (21) 
nan

>  <Synonyms>  (21) 
BAY-1251152 | ENITOCICLIB | VIP-152 | VIP152

>  <Withdrawn>  (21) 
nan

>  <Indications>  (21) 
nan

>  <Type>  (21) 
nan

>  <targets_id>  (21) 
nan

>  <Inchi>  (21) 
InChI=1S/C19H18F2N4O2S/c1-27-17-8-13(20)3-4-14(17)15-9-19(24-10-16(15)21)25-18-7-12(5-6-23-18)11-28(2,22)26/h3-10,22H,11H2,1-2H3,(H,23,24,25)

>  <stdInchikey>  (21) 
YZCUMZWULWOUMD-UHFFFAOYSA-N

>  <csid>  (21) 
81367557

>  <Links>  (21) 
|http://www.chemspider.com/Chemical-Structure.81367557.html|https://www.ebi.ac.uk/chembldb/compound/inspect/CHEMBL4756595|https://pubchem.ncbi.nlm.nih.gov/compound/74767009

>  <LinkName>  (21) 
|ChemSpider|ChEMBL|PubChem

>  <lig_pdb_ID>  (21) 


>  <pdb_IDs>  (21) 


>  <indicationDB>  (21) 


>  <uniprotId>  (21) 


>  <indicationG2P>  (21) 


>  <MW>  (21) 
404.1

>  <HBA>  (21) 
6

>  <HBD>  (21) 
2

>  <NRB>  (21) 
6

>  <TPSA>  (21) 
88.0

>  <LogP>  (21) 
4.4

>  <RoF>  (21) 
0

>  <Melting point>  (21) 
nan

>  <Targets>  (21) 
nan

>  <Kinase families>  (21) 


>  <FDA_approved>  (21) 


$$$$
Atuveciclib
     RDKit          2D

 27 29  0  0  0  0  0  0  0  0999 V2000
   -6.4652   -2.8264    0.0000 C   0  0  0  0  0  0  0  0  0  0  0  0
   -5.2367   -1.9657    0.0000 O   0  0  0  0  0  0  0  0  0  0  0  0
   -5.3679   -0.4714    0.0000 C   0  0  0  0  0  0  0  0  0  0  0  0
   -6.7276    0.1621    0.0000 C   0  0  0  0  0  0  0  0  0  0  0  0
   -6.8588    1.6563    0.0000 C   0  0  0  0  0  0  0  0  0  0  0  0
   -8.2185    2.2898    0.0000 F   0  0  0  0  0  0  0  0  0  0  0  0
   -5.6304    2.5171    0.0000 C   0  0  0  0  0  0  0  0  0  0  0  0
   -4.2707    1.8836    0.0000 C   0  0  0  0  0  0  0  0  0  0  0  0
   -4.1395    0.3894    0.0000 C   0  0  0  0  0  0  0  0  0  0  0  0
   -2.7798   -0.2441    0.0000 C   0  0  0  0  0  0  0  0  0  0  0  0
   -2.6486   -1.7384    0.0000 N   0  0  0  0  0  0  0  0  0  0  0  0
   -1.2889   -2.3719    0.0000 C   0  0  0  0  0  0  0  0  0  0  0  0
   -0.0605   -1.5111    0.0000 N   0  0  0  0  0  0  0  0  0  0  0  0
   -0.1917   -0.0168    0.0000 C   0  0  0  0  0  0  0  0  0  0  0  0
    1.0367    0.8439    0.0000 N   0  0  0  0  0  0  0  0  0  0  0  0
    2.3964    0.2105    0.0000 C   0  0  0  0  0  0  0  0  0  0  0  0
    2.5276   -1.2838    0.0000 C   0  0  0  0  0  0  0  0  0  0  0  0
    3.8873   -1.9173    0.0000 C   0  0  0  0  0  0  0  0  0  0  0  0
    5.1157   -1.0565    0.0000 C   0  0  0  0  0  0  0  0  0  0  0  0
    4.9845    0.4377    0.0000 C   0  0  0  0  0  0  0  0  0  0  0  0
    6.2130    1.2985    0.0000 C   0  0  0  0  0  0  0  0  0  0  0  0
    7.5726    0.6650    0.0000 S   0  0  0  0  0  6  0  0  0  0  0  0
    8.9323    0.0316    0.0000 C   0  0  0  0  0  0  0  0  0  0  0  0
    6.9392   -0.6946    0.0000 N   0  0  0  0  0  0  0  0  0  0  0  0
    8.2061    2.0247    0.0000 O   0  0  0  0  0  0  0  0  0  0  0  0
    3.6248    1.0712    0.0000 C   0  0  0  0  0  0  0  0  0  0  0  0
   -1.5514    0.6166    0.0000 N   0  0  0  0  0  0  0  0  0  0  0  0
  1  2  1  0
  2  3  1  0
  3  4  2  0
  4  5  1  0
  5  6  1  0
  5  7  2  0
  7  8  1  0
  8  9  2  0
  9 10  1  0
 10 11  2  0
 11 12  1  0
 12 13  2  0
 13 14  1  0
 14 15  1  0
 15 16  1  0
 16 17  2  0
 17 18  1  0
 18 19  2  0
 19 20  1  0
 20 21  1  0
 21 22  1  0
 22 23  1  6
 22 24  2  0
 22 25  2  0
 20 26  2  0
 14 27  2  0
  9  3  1  0
 27 10  1  0
 26 16  1  0
M  END
>  <BrandName>  (22) 


>  <Applicants>  (22) 
Bayer

>  <CHEMBL_ID>  (22) 
CHEMBL4439321

>  <Canonical_Smiles>  (22) 
COc1cc(F)ccc1-c1ncnc(Nc2cccc(C[S@](C)(=N)=O)c2)n1

>  <Chirality>  (22) 
Single Stereoisomer

>  <First_Approval>  (22) 
nan

>  <Phase>  (22) 
1.0

>  <SC_Patent>  (22) 
nan

>  <Synonyms>  (22) 
ATUVECICLIB

>  <Withdrawn>  (22) 
nan

>  <Indications>  (22) 
nan

>  <Type>  (22) 
nan

>  <targets_id>  (22) 
nan

>  <Inchi>  (22) 
InChI=1S/C18H18FN5O2S/c1-26-16-9-13(19)6-7-15(16)17-21-11-22-18(24-17)23-14-5-3-4-12(8-14)10-27(2,20)25/h3-9,11,20H,10H2,1-2H3,(H,21,22,23,24)/t27-/m1/s1

>  <stdInchikey>  (22) 
ACWKGTGIJRCOOM-HHHXNRCGSA-N

>  <csid>  (22) 
58827829

>  <Links>  (22) 
|http://www.chemspider.com/Chemical-Structure.58827829.html|https://www.ebi.ac.uk/chembldb/compound/inspect/CHEMBL4439321|https://pubchem.ncbi.nlm.nih.gov/compound/121488167|https://precision.fda.gov/uniisearch/srs/unii/63Q7F59W0V|https://www.bindingdb.org/bind/chemsearch/marvin/MolStructure.jsp?monomerid=50528818

>  <LinkName>  (22) 
|ChemSpider|ChEMBL|PubChem|FDA SRS|BindingDB

>  <lig_pdb_ID>  (22) 


>  <pdb_IDs>  (22) 


>  <indicationDB>  (22) 


>  <uniprotId>  (22) 


>  <indicationG2P>  (22) 


>  <MW>  (22) 
387.1

>  <HBA>  (22) 
7

>  <HBD>  (22) 
2

>  <NRB>  (22) 
6

>  <TPSA>  (22) 
100.9

>  <LogP>  (22) 
3.6

>  <RoF>  (22) 
0

>  <Melting point>  (22) 
nan

>  <Targets>  (22) 
nan

>  <Kinase families>  (22) 


>  <FDA_approved>  (22) 


$$$$
Luxeptinib
     RDKit          2D

 36 40  0  0  0  0  0  0  0  0999 V2000
   10.4483    0.9285    0.0000 C   0  0  0  0  0  0  0  0  0  0  0  0
    9.0242    1.3994    0.0000 C   0  0  0  0  0  0  0  0  0  0  0  0
    8.5680    2.8284    0.0000 C   0  0  0  0  0  0  0  0  0  0  0  0
    7.0681    2.8362    0.0000 N   0  0  0  0  0  0  0  0  0  0  0  0
    6.5971    1.4120    0.0000 C   0  0  0  0  0  0  0  0  0  0  0  0
    5.1682    0.9559    0.0000 C   0  0  0  0  0  0  0  0  0  0  0  0
    4.0587    1.9654    0.0000 C   0  0  0  0  0  0  0  0  0  0  0  0
    2.6297    1.5092    0.0000 C   0  0  0  0  0  0  0  0  0  0  0  0
    2.3102    0.0437    0.0000 C   0  0  0  0  0  0  0  0  0  0  0  0
    0.8813   -0.4125    0.0000 C   0  0  0  0  0  0  0  0  0  0  0  0
   -0.2282    0.5970    0.0000 C   0  0  0  0  0  0  0  0  0  0  0  0
   -1.6572    0.1409    0.0000 C   0  0  0  0  0  0  0  0  0  0  0  0
   -1.9767   -1.3247    0.0000 C   0  0  0  0  0  0  0  0  0  0  0  0
   -3.4056   -1.7808    0.0000 N   0  0  0  0  0  0  0  0  0  0  0  0
   -4.5151   -0.7714    0.0000 C   0  0  0  0  0  0  0  0  0  0  0  0
   -4.1957    0.6942    0.0000 O   0  0  0  0  0  0  0  0  0  0  0  0
   -5.9441   -1.2275    0.0000 N   0  0  0  0  0  0  0  0  0  0  0  0
   -7.0536   -0.2180    0.0000 C   0  0  0  0  0  0  0  0  0  0  0  0
   -6.7341    1.2476    0.0000 C   0  0  0  0  0  0  0  0  0  0  0  0
   -5.3052    1.7037    0.0000 F   0  0  0  0  0  0  0  0  0  0  0  0
   -7.8436    2.2570    0.0000 C   0  0  0  0  0  0  0  0  0  0  0  0
   -9.2726    1.8009    0.0000 C   0  0  0  0  0  0  0  0  0  0  0  0
  -10.3821    2.8104    0.0000 F   0  0  0  0  0  0  0  0  0  0  0  0
   -9.5921    0.3353    0.0000 C   0  0  0  0  0  0  0  0  0  0  0  0
   -8.4826   -0.6741    0.0000 C   0  0  0  0  0  0  0  0  0  0  0  0
   -8.8020   -2.1397    0.0000 F   0  0  0  0  0  0  0  0  0  0  0  0
   -0.8672   -2.3342    0.0000 C   0  0  0  0  0  0  0  0  0  0  0  0
    0.5618   -1.8780    0.0000 C   0  0  0  0  0  0  0  0  0  0  0  0
    1.6713   -2.8875    0.0000 F   0  0  0  0  0  0  0  0  0  0  0  0
    3.4197   -0.9658    0.0000 C   0  0  0  0  0  0  0  0  0  0  0  0
    4.8487   -0.5097    0.0000 C   0  0  0  0  0  0  0  0  0  0  0  0
    5.7241   -1.7278    0.0000 C   0  0  0  0  0  0  0  0  0  0  0  0
    7.2241   -1.7355    0.0000 O   0  0  0  0  0  0  0  0  0  0  0  0
    4.8361   -2.9367    0.0000 N   0  0  0  0  0  0  0  0  0  0  0  0
    3.4120   -2.4658    0.0000 C   0  0  0  0  0  0  0  0  0  0  0  0
    7.8061    0.5241    0.0000 N   0  0  0  0  0  0  0  0  0  0  0  0
  1  2  1  0
  2  3  2  0
  3  4  1  0
  4  5  1  0
  5  6  1  0
  6  7  2  0
  7  8  1  0
  8  9  2  0
  9 10  1  0
 10 11  2  0
 11 12  1  0
 12 13  2  0
 13 14  1  0
 14 15  1  0
 15 16  2  0
 15 17  1  0
 17 18  1  0
 18 19  2  0
 19 20  1  0
 19 21  1  0
 21 22  2  0
 22 23  1  0
 22 24  1  0
 24 25  2  0
 25 26  1  0
 13 27  1  0
 27 28  2  0
 28 29  1  0
  9 30  1  0
 30 31  2  0
 31 32  1  0
 32 33  2  0
 32 34  1  0
 34 35  1  0
  5 36  2  0
 36  2  1  0
 31  6  1  0
 28 10  1  0
 35 30  1  0
 25 18  1  0
M  END
>  <BrandName>  (23) 


>  <Applicants>  (23) 
CrystalGenomics

>  <CHEMBL_ID>  (23) 
CHEMBL4594420

>  <Canonical_Smiles>  (23) 
Cc1c[nH]c(-c2ccc(-c3ccc(NC(=O)Nc4c(F)cc(F)cc4F)cc3F)c3c2C(=O)NC3)n1

>  <Chirality>  (23) 
Achiral Molecule

>  <First_Approval>  (23) 
nan

>  <Phase>  (23) 
1.0

>  <SC_Patent>  (23) 
nan

>  <Synonyms>  (23) 
CG'806 | CG-026806 | CG-806 | CG026806 | CG806 | LUXEPTINIB

>  <Withdrawn>  (23) 
nan

>  <Indications>  (23) 
nan

>  <Type>  (23) 
nan

>  <targets_id>  (23) 
nan

>  <Inchi>  (23) 
InChI=1S/C25H17F4N5O2/c1-11-9-30-23(32-11)16-5-4-14(17-10-31-24(35)21(16)17)15-3-2-13(8-18(15)27)33-25(36)34-22-19(28)6-12(26)7-20(22)29/h2-9H,10H2,1H3,(H,30,32)(H,31,35)(H2,33,34,36)

>  <stdInchikey>  (23) 
MWHHJYUHCZWSLS-UHFFFAOYSA-N

>  <csid>  (23) 
81367387

>  <Links>  (23) 
|http://www.chemspider.com/Chemical-Structure.81367387.html|https://www.ebi.ac.uk/chembldb/compound/inspect/CHEMBL4594420|https://pubchem.ncbi.nlm.nih.gov/compound/118480924|https://precision.fda.gov/uniisearch/srs/unii/TQ6PBX1JU0|https://www.bindingdb.org/bind/chemsearch/marvin/MolStructure.jsp?monomerid=340031

>  <LinkName>  (23) 
|ChemSpider|ChEMBL|PubChem|FDA SRS|BindingDB

>  <lig_pdb_ID>  (23) 


>  <pdb_IDs>  (23) 


>  <indicationDB>  (23) 


>  <uniprotId>  (23) 


>  <indicationG2P>  (23) 


>  <MW>  (23) 
495.1

>  <HBA>  (23) 
3

>  <HBD>  (23) 
4

>  <NRB>  (23) 
4

>  <TPSA>  (23) 
98.9

>  <LogP>  (23) 
5.5

>  <RoF>  (23) 
1

>  <Melting point>  (23) 
nan

>  <Targets>  (23) 
nan

>  <Kinase families>  (23) 


>  <FDA_approved>  (23) 


$$$$
Nedisertib
     RDKit          2D

 34 38  0  0  0  0  0  0  0  0999 V2000
   -9.3526   -1.2937    0.0000 C   0  0  0  0  0  0  0  0  0  0  0  0
   -8.3211   -2.3826    0.0000 O   0  0  0  0  0  0  0  0  0  0  0  0
   -6.8622   -2.0338    0.0000 C   0  0  0  0  0  0  0  0  0  0  0  0
   -6.4349   -0.5959    0.0000 C   0  0  0  0  0  0  0  0  0  0  0  0
   -4.9760   -0.2471    0.0000 C   0  0  0  0  0  0  0  0  0  0  0  0
   -3.9445   -1.3361    0.0000 C   0  0  0  0  0  0  0  0  0  0  0  0
   -4.3718   -2.7739    0.0000 N   0  0  0  0  0  0  0  0  0  0  0  0
   -5.8307   -3.1228    0.0000 N   0  0  0  0  0  0  0  0  0  0  0  0
   -2.4856   -0.9872    0.0000 C   0  0  0  0  0  0  0  0  0  0  0  0
   -2.0583    0.4506    0.0000 C   0  0  0  0  0  0  0  0  0  0  0  0
   -0.5994    0.7995    0.0000 C   0  0  0  0  0  0  0  0  0  0  0  0
   -0.1721    2.2373    0.0000 C   0  0  0  0  0  0  0  0  0  0  0  0
   -1.2037    3.3263    0.0000 C   0  0  0  0  0  0  0  0  0  0  0  0
   -2.6625    2.9775    0.0000 C   0  0  0  0  0  0  0  0  0  0  0  0
   -3.0899    1.5396    0.0000 C   0  0  0  0  0  0  0  0  0  0  0  0
   -4.5487    1.1908    0.0000 Cl  0  0  0  0  0  0  0  0  0  0  0  0
   -0.7764    4.7642    0.0000 F   0  0  0  0  0  0  0  0  0  0  0  0
    1.2868    2.5862    0.0000 C   0  0  0  0  0  0  0  0  0  0  0  0
    2.3183    1.4972    0.0000 C   0  0  0  0  0  0  0  0  0  0  0  0
    1.8910    0.0593    0.0000 C   0  0  0  0  0  0  0  0  0  0  0  0
    2.9225   -1.0296    0.0000 C   0  0  0  0  0  0  0  0  0  0  0  0
    4.3814   -0.6808    0.0000 C   0  0  0  0  0  0  0  0  0  0  0  0
    4.8087    0.7571    0.0000 C   0  0  0  0  0  0  0  0  0  0  0  0
    3.7772    1.8460    0.0000 C   0  0  0  0  0  0  0  0  0  0  0  0
    4.2045    3.2839    0.0000 N   0  0  0  0  0  0  0  0  0  0  0  0
    3.1729    4.3729    0.0000 C   0  0  0  0  0  0  0  0  0  0  0  0
    1.7141    4.0240    0.0000 N   0  0  0  0  0  0  0  0  0  0  0  0
    5.4130   -1.7698    0.0000 N   0  0  0  0  0  0  0  0  0  0  0  0
    4.9856   -3.2076    0.0000 C   0  0  0  0  0  0  0  0  0  0  0  0
    6.0172   -4.2966    0.0000 C   0  0  0  0  0  0  0  0  0  0  0  0
    7.4761   -3.9478    0.0000 O   0  0  0  0  0  0  0  0  0  0  0  0
    7.9034   -2.5099    0.0000 C   0  0  0  0  0  0  0  0  0  0  0  0
    6.8718   -1.4209    0.0000 C   0  0  0  0  0  0  0  0  0  0  0  0
   -1.4541   -2.0762    0.0000 O   0  0  0  0  0  0  0  0  0  0  0  0
  1  2  1  0
  2  3  1  0
  3  4  2  0
  4  5  1  0
  5  6  2  0
  6  7  1  0
  7  8  2  0
  6  9  1  0
  9 10  1  0
 10 11  2  0
 11 12  1  0
 12 13  2  0
 13 14  1  0
 14 15  2  0
 15 16  1  0
 13 17  1  0
 12 18  1  0
 18 19  1  0
 19 20  2  0
 20 21  1  0
 21 22  2  0
 22 23  1  0
 23 24  2  0
 24 25  1  0
 25 26  2  0
 26 27  1  0
 22 28  1  0
 28 29  1  0
 29 30  1  0
 30 31  1  0
 31 32  1  0
 32 33  1  0
  9 34  1  0
  8  3  1  0
 15 10  1  0
 27 18  2  0
 24 19  1  0
 33 28  1  0
M  END
>  <BrandName>  (24) 


>  <Applicants>  (24) 
Merck

>  <CHEMBL_ID>  (24) 
CHEMBL4297629

>  <Canonical_Smiles>  (24) 
COc1ccc(nn1)C(c2cc(c(cc2Cl)F)c3c4ccc(cc4ncn3)N5CCOCC5)O

>  <Chirality>  (24) 
Single Stereoisomer

>  <First_Approval>  (24) 
nan

>  <Phase>  (24) 
1.5

>  <SC_Patent>  (24) 
nan

>  <Synonyms>  (24) 
MSC2490484A|MSC-2490484A|M3814|MSC 2490484A|M-3814

>  <Withdrawn>  (24) 
{''}

>  <Indications>  (24) 
nan

>  <Type>  (24) 
nan

>  <targets_id>  (24) 
nan

>  <Inchi>  (24) 
InChI=1S/C24H21ClFN5O3/c1-33-22-5-4-20(29-30-22)24(32)16-11-17(19(26)12-18(16)25)23-15-3-2-14(10-21(15)27-13-28-23)31-6-8-34-9-7-31/h2-5,10-13,24,32H,6-9H2,1H3/t24-/m0/s1

>  <stdInchikey>  (24) 
MOWXJLUYGFNTAL-UHFFFAOYSA-N

>  <csid>  (24) 
68007068

>  <Links>  (24) 
|http://www.chemspider.com/Chemical-Structure.68007068.html|https://pubchem.ncbi.nlm.nih.gov/compound/117696445|https://www.bindingdb.org/bind/chemsearch/marvin/MolStructure.jsp?monomerid=315705

>  <LinkName>  (24) 
|ChemSpider|PubChem|BindingDB

>  <lig_pdb_ID>  (24) 


>  <pdb_IDs>  (24) 


>  <indicationDB>  (24) 


>  <uniprotId>  (24) 


>  <indicationG2P>  (24) 


>  <MW>  (24) 
481.1

>  <HBA>  (24) 
8

>  <HBD>  (24) 
1

>  <NRB>  (24) 
5

>  <TPSA>  (24) 
93.5

>  <LogP>  (24) 
3.8

>  <RoF>  (24) 
0

>  <Melting point>  (24) 
nan

>  <Targets>  (24) 
nan

>  <Kinase families>  (24) 


>  <FDA_approved>  (24) 


$$$$
Linperlisib
     RDKit          2D

 41 45  0  0  0  0  0  0  0  0999 V2000
   -7.5596   -3.0302    0.0000 C   0  0  0  0  0  0  0  0  0  0  0  0
   -8.2539   -1.7005    0.0000 C   0  0  0  0  0  0  0  0  0  0  0  0
   -8.9482   -0.3709    0.0000 C   0  0  0  0  0  0  0  0  0  0  0  0
   -6.9243   -1.0062    0.0000 C   0  0  0  0  0  0  0  0  0  0  0  0
   -6.8607    0.4924    0.0000 C   0  0  0  0  0  0  0  0  0  0  0  0
   -5.5310    1.1867    0.0000 C   0  0  0  0  0  0  0  0  0  0  0  0
   -4.2650    0.3823    0.0000 N   0  0  0  0  0  0  0  0  0  0  0  0
   -4.3285   -1.1164    0.0000 C   0  0  0  0  0  0  0  0  0  0  0  0
   -5.6582   -1.8106    0.0000 C   0  0  0  0  0  0  0  0  0  0  0  0
   -2.9353    1.0766    0.0000 C   0  0  0  0  0  0  0  0  0  0  0  0
   -1.6692    0.2722    0.0000 C   0  0  0  0  0  0  0  0  0  0  0  0
   -1.7328   -1.2265    0.0000 C   0  0  0  0  0  0  0  0  0  0  0  0
   -0.4667   -2.0308    0.0000 C   0  0  0  0  0  0  0  0  0  0  0  0
    0.8630   -1.3366    0.0000 C   0  0  0  0  0  0  0  0  0  0  0  0
    0.9265    0.1621    0.0000 C   0  0  0  0  0  0  0  0  0  0  0  0
   -0.3396    0.9665    0.0000 C   0  0  0  0  0  0  0  0  0  0  0  0
   -0.2760    2.4651    0.0000 N   0  0  0  0  0  0  0  0  0  0  0  0
    1.0537    3.1594    0.0000 C   0  0  0  0  0  0  0  0  0  0  0  0
    2.3198    2.3550    0.0000 N   0  0  0  0  0  0  0  0  0  0  0  0
    2.2562    0.8564    0.0000 C   0  0  0  0  0  0  0  0  0  0  0  0
    3.5223    0.0520    0.0000 C   0  0  0  0  0  0  0  0  0  0  0  0
    3.4587   -1.4467    0.0000 C   0  0  0  0  0  0  0  0  0  0  0  0
    4.7248   -2.2510    0.0000 C   0  0  0  0  0  0  0  0  0  0  0  0
    6.0545   -1.5568    0.0000 C   0  0  0  0  0  0  0  0  0  0  0  0
    6.1180   -0.0581    0.0000 N   0  0  0  0  0  0  0  0  0  0  0  0
    4.8519    0.7463    0.0000 C   0  0  0  0  0  0  0  0  0  0  0  0
    7.3205   -2.3611    0.0000 O   0  0  0  0  0  0  0  0  0  0  0  0
    8.6502   -1.6669    0.0000 C   0  0  0  0  0  0  0  0  0  0  0  0
    4.6612   -3.7497    0.0000 N   0  0  0  0  0  0  0  0  0  0  0  0
    3.3316   -4.4440    0.0000 S   0  0  0  0  0  0  0  0  0  0  0  0
    2.6373   -3.1143    0.0000 O   0  0  0  0  0  0  0  0  0  0  0  0
    4.0259   -5.7736    0.0000 O   0  0  0  0  0  0  0  0  0  0  0  0
    2.0019   -5.1382    0.0000 C   0  0  0  0  0  0  0  0  0  0  0  0
    1.1172    4.6581    0.0000 N   0  0  0  0  0  0  0  0  0  0  0  0
    2.4469    5.3523    0.0000 C   0  0  0  0  0  0  0  0  0  0  0  0
    2.5105    6.8510    0.0000 C   0  0  0  0  0  0  0  0  0  0  0  0
    1.2444    7.6554    0.0000 O   0  0  0  0  0  0  0  0  0  0  0  0
   -0.0853    6.9611    0.0000 C   0  0  0  0  0  0  0  0  0  0  0  0
   -0.1489    5.4624    0.0000 C   0  0  0  0  0  0  0  0  0  0  0  0
   -0.5303   -3.5295    0.0000 F   0  0  0  0  0  0  0  0  0  0  0  0
   -9.5836   -2.3948    0.0000 O   0  0  0  0  0  0  0  0  0  0  0  0
  1  2  1  0
  2  3  1  0
  2  4  1  0
  4  5  1  0
  5  6  1  0
  6  7  1  0
  7  8  1  0
  8  9  1  0
  7 10  1  0
 10 11  1  0
 11 12  2  0
 12 13  1  0
 13 14  2  0
 14 15  1  0
 15 16  2  0
 16 17  1  0
 17 18  2  0
 18 19  1  0
 19 20  2  0
 20 21  1  0
 21 22  2  0
 22 23  1  0
 23 24  2  0
 24 25  1  0
 25 26  2  0
 24 27  1  0
 27 28  1  0
 23 29  1  0
 29 30  1  0
 30 31  2  0
 30 32  2  0
 30 33  1  0
 18 34  1  0
 34 35  1  0
 35 36  1  0
 36 37  1  0
 37 38  1  0
 38 39  1  0
 13 40  1  0
  2 41  1  0
  9  4  1  0
 16 11  1  0
 20 15  1  0
 26 21  1  0
 39 34  1  0
M  END
>  <BrandName>  (25) 


>  <Applicants>  (25) 
Shanghai Yingli Pharmaceutical

>  <CHEMBL_ID>  (25) 
CHEMBL4574601

>  <Canonical_Smiles>  (25) 
CC(C)(C1CCN(CC1)Cc2cc(cc3c2nc(nc3c4cc(c(nc4)OC)NS(=O)(=O)C)N5CCOCC5)F)O

>  <Chirality>  (25) 
Achiral Molecule

>  <First_Approval>  (25) 
nan

>  <Phase>  (25) 
1.5

>  <SC_Patent>  (25) 
nan

>  <Synonyms>  (25) 
LINPERLISIB

>  <Withdrawn>  (25) 
{''}

>  <Indications>  (25) 
nan

>  <Type>  (25) 
nan

>  <targets_id>  (25) 
nan

>  <Inchi>  (25) 
InChI=1S/C28H37FN6O5S/c1-28(2,36)20-5-7-34(8-6-20)17-19-13-21(29)15-22-24(31-27(32-25(19)22)35-9-11-40-12-10-35)18-14-23(33-41(4,37)38)26(39-3)30-16-18/h13-16,20,33,36H,5-12,17H2,1-4H3

>  <stdInchikey>  (25) 
NVWKNQGHVMMAJW-UHFFFAOYSA-N

>  <csid>  (25) 
67886313

>  <Links>  (25) 
|http://www.chemspider.com/Chemical-Structure.67886313.html|https://www.ebi.ac.uk/chembldb/compound/inspect/CHEMBL4574601|https://pubchem.ncbi.nlm.nih.gov/compound/91754520|https://go.drugbank.com/drugs/DB17235|https://www.guidetopharmacology.org/GRAC/LigandDisplayForward?10466|https://precision.fda.gov/uniisearch/srs/unii/05HYK3CV9N|https://www.bindingdb.org/bind/chemsearch/marvin/MolStructure.jsp?monomerid=309960

>  <LinkName>  (25) 
|ChemSpider|ChEMBL|PubChem|DrugBank|Guide to Pharmacology|FDA SRS|BindingDB

>  <lig_pdb_ID>  (25) 


>  <pdb_IDs>  (25) 


>  <indicationDB>  (25) 


>  <uniprotId>  (25) 


>  <indicationG2P>  (25) 
None

>  <MW>  (25) 
588.3

>  <HBA>  (25) 
10

>  <HBD>  (25) 
2

>  <NRB>  (25) 
8

>  <TPSA>  (25) 
130.0

>  <LogP>  (25) 
3.0

>  <RoF>  (25) 
1

>  <Melting point>  (25) 
nan

>  <Targets>  (25) 
nan

>  <Kinase families>  (25) 


>  <FDA_approved>  (25) 


$$$$
Peposertib
     RDKit          2D

 24 25  0  0  0  0  0  0  0  0999 V2000
   -8.4741   -0.4658    0.0000 C   0  0  0  0  0  0  0  0  0  0  0  0
   -7.1088    0.1553    0.0000 O   0  0  0  0  0  0  0  0  0  0  0  0
   -5.8881   -0.7165    0.0000 C   0  0  0  0  0  0  0  0  0  0  0  0
   -4.5228   -0.0953    0.0000 C   0  0  0  0  0  0  0  0  0  0  0  0
   -3.3022   -0.9672    0.0000 O   0  0  0  0  0  0  0  0  0  0  0  0
   -1.9368   -0.3460    0.0000 C   0  0  0  0  0  0  0  0  0  0  0  0
   -1.7921    1.1470    0.0000 C   0  0  0  0  0  0  0  0  0  0  0  0
   -0.4268    1.7682    0.0000 C   0  0  0  0  0  0  0  0  0  0  0  0
    0.7938    0.8963    0.0000 C   0  0  0  0  0  0  0  0  0  0  0  0
    0.6491   -0.5967    0.0000 C   0  0  0  0  0  0  0  0  0  0  0  0
   -0.7162   -1.2178    0.0000 C   0  0  0  0  0  0  0  0  0  0  0  0
   -0.8609   -2.7108    0.0000 O   0  0  0  0  0  0  0  0  0  0  0  0
   -2.2263   -3.3320    0.0000 C   0  0  0  0  0  0  0  0  0  0  0  0
    2.1592    1.5175    0.0000 C   0  0  0  0  0  0  0  0  0  0  0  0
    3.3798    0.6457    0.0000 C   0  0  0  0  0  0  0  0  0  0  0  0
    3.2351   -0.8473    0.0000 C   0  0  0  0  0  0  0  0  0  0  0  0
    4.4557   -1.7192    0.0000 N   0  0  0  0  0  0  0  0  0  0  0  0
    5.8210   -1.0980    0.0000 C   0  0  0  0  0  0  0  0  0  0  0  0
    5.9657    0.3950    0.0000 N   0  0  0  0  0  0  0  0  0  0  0  0
    4.7451    1.2669    0.0000 C   0  0  0  0  0  0  0  0  0  0  0  0
    4.8898    2.7599    0.0000 N   0  0  0  0  0  0  0  0  0  0  0  0
    7.0416   -1.9698    0.0000 N   0  0  0  0  0  0  0  0  0  0  0  0
   -3.0127    2.0188    0.0000 O   0  0  0  0  0  0  0  0  0  0  0  0
   -2.8680    3.5118    0.0000 C   0  0  0  0  0  0  0  0  0  0  0  0
  1  2  1  0
  2  3  1  0
  3  4  1  0
  4  5  1  0
  5  6  1  0
  6  7  2  0
  7  8  1  0
  8  9  2  0
  9 10  1  0
 10 11  2  0
 11 12  1  0
 12 13  1  0
  9 14  1  0
 14 15  1  0
 15 16  2  0
 16 17  1  0
 17 18  2  0
 18 19  1  0
 19 20  2  0
 20 21  1  0
 18 22  1  0
  7 23  1  0
 23 24  1  0
 11  6  1  0
 20 15  1  0
M  END
>  <BrandName>  (26) 


>  <Applicants>  (26) 
Merck

>  <CHEMBL_ID>  (26) 
nan

>  <Canonical_Smiles>  (26) 
COCCOc1c(cc(cc1OC)Cc2cnc(nc2N)N)OC

>  <Chirality>  (26) 
nan

>  <First_Approval>  (26) 
nan

>  <Phase>  (26) 
1.5

>  <SC_Patent>  (26) 
nan

>  <Synonyms>  (26) 
TETROXOPRIM | TETROXOPRIMA | TETROXOPRIME

>  <Withdrawn>  (26) 
{''}

>  <Indications>  (26) 
nan

>  <Type>  (26) 
nan

>  <targets_id>  (26) 
nan

>  <Inchi>  (26) 
InChI=1S/C16H22N4O4/c1-21-4-5-24-14-12(22-2)7-10(8-13(14)23-3)6-11-9-19-16(18)20-15(11)17/h7-9H,4-6H2,1-3H3,(H4,17,18,19,20)

>  <stdInchikey>  (26) 
WSWJIZXMAUYHOE-UHFFFAOYSA-N

>  <csid>  (26) 
58910

>  <Links>  (26) 
|http://www.chemspider.com/Chemical-Structure.58910.html|https://www.ebi.ac.uk/chembldb/compound/inspect/CHEMBL32039|https://pubchem.ncbi.nlm.nih.gov/compound/65450|https://go.drugbank.com/drugs/DB15976|https://zinc15.docking.org/substances/ZINC000002020087|https://precision.fda.gov/uniisearch/srs/unii/5R6712AY0K|https://www.bindingdb.org/bind/chemsearch/marvin/MolStructure.jsp?monomerid=50029760

>  <LinkName>  (26) 
|ChemSpider|ChEMBL|PubChem|DrugBank|ZINC|FDA SRS|BindingDB

>  <lig_pdb_ID>  (26) 


>  <pdb_IDs>  (26) 


>  <indicationDB>  (26) 


>  <uniprotId>  (26) 


>  <indicationG2P>  (26) 


>  <MW>  (26) 
334.2

>  <HBA>  (26) 
8

>  <HBD>  (26) 
2

>  <NRB>  (26) 
8

>  <TPSA>  (26) 
114.7

>  <LogP>  (26) 
1.3

>  <RoF>  (26) 
0

>  <Melting point>  (26) 
nan

>  <Targets>  (26) 
nan

>  <Kinase families>  (26) 


>  <FDA_approved>  (26) 


$$$$
Elimusertib
     RDKit          2D

 28 32  0  0  0  0  0  0  0  0999 V2000
   -2.3227    3.1447    0.0000 C   0  0  0  0  0  0  0  0  0  0  0  0
   -0.9165    3.6667    0.0000 C   0  0  0  0  0  0  0  0  0  0  0  0
   -0.6654    5.1455    0.0000 C   0  0  0  0  0  0  0  0  0  0  0  0
    0.7409    5.6675    0.0000 O   0  0  0  0  0  0  0  0  0  0  0  0
    1.8961    4.7106    0.0000 C   0  0  0  0  0  0  0  0  0  0  0  0
    1.6450    3.2318    0.0000 C   0  0  0  0  0  0  0  0  0  0  0  0
    0.2387    2.7098    0.0000 N   0  0  0  0  0  0  0  0  0  0  0  0
   -0.0124    1.2310    0.0000 C   0  0  0  0  0  0  0  0  0  0  0  0
   -1.4187    0.7090    0.0000 C   0  0  0  0  0  0  0  0  0  0  0  0
   -1.6698   -0.7698    0.0000 C   0  0  0  0  0  0  0  0  0  0  0  0
   -0.5146   -1.7267    0.0000 C   0  0  0  0  0  0  0  0  0  0  0  0
   -0.7657   -3.2055    0.0000 C   0  0  0  0  0  0  0  0  0  0  0  0
    0.3895   -4.1624    0.0000 C   0  0  0  0  0  0  0  0  0  0  0  0
    1.7957   -3.6404    0.0000 N   0  0  0  0  0  0  0  0  0  0  0  0
    2.0468   -2.1616    0.0000 C   0  0  0  0  0  0  0  0  0  0  0  0
    0.8917   -1.2047    0.0000 C   0  0  0  0  0  0  0  0  0  0  0  0
    1.1428    0.2741    0.0000 N   0  0  0  0  0  0  0  0  0  0  0  0
    3.4531   -1.6397    0.0000 C   0  0  0  0  0  0  0  0  0  0  0  0
    3.8574   -0.1952    0.0000 C   0  0  0  0  0  0  0  0  0  0  0  0
    5.3561   -0.1333    0.0000 C   0  0  0  0  0  0  0  0  0  0  0  0
    5.8781   -1.5396    0.0000 N   0  0  0  0  0  0  0  0  0  0  0  0
    4.7019   -2.4705    0.0000 N   0  0  0  0  0  0  0  0  0  0  0  0
   -3.0760   -1.2918    0.0000 C   0  0  0  0  0  0  0  0  0  0  0  0
   -3.4803   -2.7363    0.0000 C   0  0  0  0  0  0  0  0  0  0  0  0
   -4.9790   -2.7981    0.0000 C   0  0  0  0  0  0  0  0  0  0  0  0
   -5.5010   -1.3919    0.0000 N   0  0  0  0  0  0  0  0  0  0  0  0
   -4.3249   -0.4609    0.0000 N   0  0  0  0  0  0  0  0  0  0  0  0
   -4.3867    1.0378    0.0000 C   0  0  0  0  0  0  0  0  0  0  0  0
  1  2  1  0
  2  3  1  0
  3  4  1  0
  4  5  1  0
  5  6  1  0
  6  7  1  0
  7  8  1  0
  8  9  2  0
  9 10  1  0
 10 11  2  0
 11 12  1  0
 12 13  2  0
 13 14  1  0
 14 15  2  0
 15 16  1  0
 16 17  2  0
 15 18  1  0
 18 19  2  0
 19 20  1  0
 20 21  2  0
 21 22  1  0
 10 23  1  0
 23 24  2  0
 24 25  1  0
 25 26  2  0
 26 27  1  0
 27 28  1  0
  7  2  1  0
 17  8  1  0
 16 11  1  0
 22 18  1  0
 27 23  1  0
M  END
>  <BrandName>  (27) 


>  <Applicants>  (27) 
Bayer

>  <CHEMBL_ID>  (27) 
CHEMBL4647810

>  <Canonical_Smiles>  (27) 
CC1COCCN1c2cc(c3ccnc(c3n2)c4ccn[nH]4)c5ccnn5C

>  <Chirality>  (27) 
Single Stereoisomer

>  <First_Approval>  (27) 
nan

>  <Phase>  (27) 
1.5

>  <SC_Patent>  (27) 
nan

>  <Synonyms>  (27) 
BAY1895344||BAY 1895344|BAY-1895344

>  <Withdrawn>  (27) 
{''}

>  <Indications>  (27) 
nan

>  <Type>  (27) 
nan

>  <targets_id>  (27) 
nan

>  <Inchi>  (27) 
InChI=1S/C20H21N7O/c1-13-12-28-10-9-27(13)18-11-15(17-5-8-23-26(17)2)14-3-6-21-20(19(14)24-18)16-4-7-22-25-16/h3-8,11,13H,9-10,12H2,1-2H3,(H,22,25)/t13-/m1/s1

>  <stdInchikey>  (27) 
YBXRSCXGRPSTMW-UHFFFAOYSA-N

>  <csid>  (27) 
64879752

>  <Links>  (27) 
|http://www.chemspider.com/Chemical-Structure.64879752.html|https://pubchem.ncbi.nlm.nih.gov/compound/134446438

>  <LinkName>  (27) 
|ChemSpider|PubChem

>  <lig_pdb_ID>  (27) 


>  <pdb_IDs>  (27) 


>  <indicationDB>  (27) 


>  <uniprotId>  (27) 


>  <indicationG2P>  (27) 


>  <MW>  (27) 
375.2

>  <HBA>  (27) 
7

>  <HBD>  (27) 
1

>  <NRB>  (27) 
3

>  <TPSA>  (27) 
84.8

>  <LogP>  (27) 
2.6

>  <RoF>  (27) 
0

>  <Melting point>  (27) 
nan

>  <Targets>  (27) 
nan

>  <Kinase families>  (27) 


>  <FDA_approved>  (27) 


$$$$
Flonoltinib
     RDKit          2D

 34 37  0  0  0  0  0  0  0  0999 V2000
   -8.2401    0.5982    0.0000 C   0  0  0  0  0  0  0  0  0  0  0  0
   -7.0697   -0.3400    0.0000 N   0  0  0  0  0  0  0  0  0  0  0  0
   -7.2970   -1.8227    0.0000 C   0  0  0  0  0  0  0  0  0  0  0  0
   -8.6946   -2.3672    0.0000 C   0  0  0  0  0  0  0  0  0  0  0  0
   -8.9219   -3.8499    0.0000 O   0  0  0  0  0  0  0  0  0  0  0  0
   -5.6720    0.2046    0.0000 C   0  0  0  0  0  0  0  0  0  0  0  0
   -5.4448    1.6872    0.0000 C   0  0  0  0  0  0  0  0  0  0  0  0
   -4.0471    2.2318    0.0000 C   0  0  0  0  0  0  0  0  0  0  0  0
   -2.8767    1.2936    0.0000 N   0  0  0  0  0  0  0  0  0  0  0  0
   -3.1040   -0.1890    0.0000 C   0  0  0  0  0  0  0  0  0  0  0  0
   -4.5016   -0.7336    0.0000 C   0  0  0  0  0  0  0  0  0  0  0  0
   -1.4790    1.8382    0.0000 C   0  0  0  0  0  0  0  0  0  0  0  0
   -0.3086    0.9000    0.0000 C   0  0  0  0  0  0  0  0  0  0  0  0
    1.0891    1.4446    0.0000 C   0  0  0  0  0  0  0  0  0  0  0  0
    1.3163    2.9273    0.0000 C   0  0  0  0  0  0  0  0  0  0  0  0
    0.1459    3.8654    0.0000 C   0  0  0  0  0  0  0  0  0  0  0  0
   -1.2518    3.3209    0.0000 C   0  0  0  0  0  0  0  0  0  0  0  0
   -2.4222    4.2590    0.0000 F   0  0  0  0  0  0  0  0  0  0  0  0
    2.7140    3.4718    0.0000 N   0  0  0  0  0  0  0  0  0  0  0  0
    3.8844    2.5337    0.0000 C   0  0  0  0  0  0  0  0  0  0  0  0
    3.6571    1.0510    0.0000 N   0  0  0  0  0  0  0  0  0  0  0  0
    4.8276    0.1128    0.0000 C   0  0  0  0  0  0  0  0  0  0  0  0
    4.6003   -1.3698    0.0000 C   0  0  0  0  0  0  0  0  0  0  0  0
    5.6663   -2.4252    0.0000 C   0  0  0  0  0  0  0  0  0  0  0  0
    4.9920   -3.7651    0.0000 N   0  0  0  0  0  0  0  0  0  0  0  0
    3.5093   -3.5378    0.0000 N   0  0  0  0  0  0  0  0  0  0  0  0
    3.2672   -2.0575    0.0000 C   0  0  0  0  0  0  0  0  0  0  0  0
    2.4539   -4.6038    0.0000 C   0  0  0  0  0  0  0  0  0  0  0  0
    1.0031   -4.2228    0.0000 C   0  0  0  0  0  0  0  0  0  0  0  0
    2.8494   -6.0507    0.0000 C   0  0  0  0  0  0  0  0  0  0  0  0
    6.2252    0.6574    0.0000 C   0  0  0  0  0  0  0  0  0  0  0  0
    7.3956   -0.2808    0.0000 C   0  0  0  0  0  0  0  0  0  0  0  0
    6.4525    2.1401    0.0000 C   0  0  0  0  0  0  0  0  0  0  0  0
    5.2821    3.0782    0.0000 N   0  0  0  0  0  0  0  0  0  0  0  0
  1  2  1  0
  2  3  1  0
  3  4  1  0
  4  5  1  0
  2  6  1  0
  6  7  1  0
  7  8  1  0
  8  9  1  0
  9 10  1  0
 10 11  1  0
  9 12  1  0
 12 13  2  0
 13 14  1  0
 14 15  2  0
 15 16  1  0
 16 17  2  0
 17 18  1  0
 15 19  1  0
 19 20  1  0
 20 21  2  0
 21 22  1  0
 22 23  1  0
 23 24  1  0
 24 25  2  0
 25 26  1  0
 26 27  1  0
 26 28  1  0
 28 29  1  0
 28 30  1  0
 22 31  2  0
 31 32  1  0
 31 33  1  0
 33 34  2  0
 11  6  1  0
 17 12  1  0
 34 20  1  0
 27 23  2  0
M  END
>  <BrandName>  (28) 


>  <Applicants>  (28) 
Chengdu Zenitar Biomedical Technology

>  <CHEMBL_ID>  (28) 
nan

>  <Canonical_Smiles>  (28) 
CN(CCO)C1CCN(CC1)C1=CC=C(C=C1F)NC1N=C(C2C=NN(C=2)C(C)C)C(C)=CN=1

>  <Chirality>  (28) 
nan

>  <First_Approval>  (28) 
nan

>  <Phase>  (28) 
1.5

>  <SC_Patent>  (28) 
nan

>  <Synonyms>  (28) 


>  <Withdrawn>  (28) 
nan

>  <Indications>  (28) 
nan

>  <Type>  (28) 
nan

>  <targets_id>  (28) 
nan

>  <Inchi>  (28) 
nan

>  <stdInchikey>  (28) 
CVLXNRIQVFIVGY-UHFFFAOYSA-N

>  <csid>  (28) 
103835539

>  <Links>  (28) 
|http://www.chemspider.com/Chemical-Structure.103835539.html|https://www.ebi.ac.uk/chembldb/compound/inspect/CHEMBL4447631|https://pubchem.ncbi.nlm.nih.gov/compound/139600335|https://www.rcsb.org/ligand/36H|https://www.ebi.ac.uk/pdbe-srv/pdbechem/chemicalCompound/show/36H|https://www.guidetopharmacology.org/GRAC/LigandDisplayForward?10549|https://www.bindingdb.org/bind/chemsearch/marvin/MolStructure.jsp?monomerid=50505817

>  <LinkName>  (28) 
|ChemSpider|ChEMBL|PubChem|RCSB|PDBe|Guide to Pharmacology|BindingDB

>  <lig_pdb_ID>  (28) 
36H

>  <pdb_IDs>  (28) 
7f7w

>  <indicationDB>  (28) 


>  <uniprotId>  (28) 


>  <indicationG2P>  (28) 
None

>  <MW>  (28) 
467.3

>  <HBA>  (28) 
8

>  <HBD>  (28) 
2

>  <NRB>  (28) 
8

>  <TPSA>  (28) 
82.3

>  <LogP>  (28) 
4.0

>  <RoF>  (28) 
0

>  <Melting point>  (28) 
nan

>  <Targets>  (28) 
nan

>  <Kinase families>  (28) 


>  <FDA_approved>  (28) 


$$$$
Edicotinib
     RDKit          2D

 34 37  0  0  0  0  0  0  0  0999 V2000
    3.0545   -5.4261    0.0000 C   0  0  0  0  0  0  0  0  0  0  0  0
    1.6911   -4.8007    0.0000 C   0  0  0  0  0  0  0  0  0  0  0  0
    0.1960   -4.6794    0.0000 C   0  0  0  0  0  0  0  0  0  0  0  0
   -0.4465   -3.3240    0.0000 C   0  0  0  0  0  0  0  0  0  0  0  0
    0.4062   -2.0898    0.0000 C   0  0  0  0  0  0  0  0  0  0  0  0
    1.9012   -2.2112    0.0000 C   0  0  0  0  0  0  0  0  0  0  0  0
    2.5437   -3.5666    0.0000 C   0  0  0  0  0  0  0  0  0  0  0  0
   -0.2363   -0.7344    0.0000 C   0  0  0  0  0  0  0  0  0  0  0  0
    0.6163    0.4997    0.0000 C   0  0  0  0  0  0  0  0  0  0  0  0
   -0.0261    1.8552    0.0000 C   0  0  0  0  0  0  0  0  0  0  0  0
   -1.5212    1.9765    0.0000 C   0  0  0  0  0  0  0  0  0  0  0  0
   -2.3738    0.7424    0.0000 C   0  0  0  0  0  0  0  0  0  0  0  0
   -1.7314   -0.6131    0.0000 N   0  0  0  0  0  0  0  0  0  0  0  0
   -3.8689    0.8637    0.0000 C   0  0  0  0  0  0  0  0  0  0  0  0
   -4.5114    2.2192    0.0000 C   0  0  0  0  0  0  0  0  0  0  0  0
   -6.0065    2.3405    0.0000 C   0  0  0  0  0  0  0  0  0  0  0  0
   -6.8591    1.1064    0.0000 O   0  0  0  0  0  0  0  0  0  0  0  0
   -6.2166   -0.2490    0.0000 C   0  0  0  0  0  0  0  0  0  0  0  0
   -4.7215   -0.3704    0.0000 C   0  0  0  0  0  0  0  0  0  0  0  0
   -6.0765   -1.7425    0.0000 C   0  0  0  0  0  0  0  0  0  0  0  0
   -7.6631   -0.6464    0.0000 C   0  0  0  0  0  0  0  0  0  0  0  0
   -7.3699    2.9659    0.0000 C   0  0  0  0  0  0  0  0  0  0  0  0
   -5.6273    3.7918    0.0000 C   0  0  0  0  0  0  0  0  0  0  0  0
    2.1114    0.3784    0.0000 N   0  0  0  0  0  0  0  0  0  0  0  0
    2.9640    1.6125    0.0000 C   0  0  0  0  0  0  0  0  0  0  0  0
    2.3216    2.9679    0.0000 O   0  0  0  0  0  0  0  0  0  0  0  0
    4.4591    1.4911    0.0000 C   0  0  0  0  0  0  0  0  0  0  0  0
    5.4361    2.6294    0.0000 N   0  0  0  0  0  0  0  0  0  0  0  0
    6.8205    2.0520    0.0000 C   0  0  0  0  0  0  0  0  0  0  0  0
    6.6992    0.5569    0.0000 C   0  0  0  0  0  0  0  0  0  0  0  0
    5.2397    0.2103    0.0000 N   0  0  0  0  0  0  0  0  0  0  0  0
    8.1014    2.8326    0.0000 C   0  0  0  0  0  0  0  0  0  0  0  0
    9.3822    3.6132    0.0000 N   0  0  0  0  0  0  0  0  0  0  0  0
    1.3120   -6.2520    0.0000 C   0  0  0  0  0  0  0  0  0  0  0  0
  1  2  1  0
  2  3  1  0
  3  4  1  0
  4  5  1  0
  5  6  2  0
  6  7  1  0
  5  8  1  0
  8  9  1  0
  9 10  2  0
 10 11  1  0
 11 12  2  0
 12 13  1  0
 12 14  1  0
 14 15  1  0
 15 16  1  0
 16 17  1  0
 17 18  1  0
 18 19  1  0
 18 20  1  0
 18 21  1  0
 16 22  1  0
 16 23  1  0
  9 24  1  0
 24 25  1  0
 25 26  2  0
 25 27  1  0
 27 28  1  0
 28 29  1  0
 29 30  2  0
 30 31  1  0
 29 32  1  0
 32 33  3  0
  2 34  1  0
  7  2  1  0
 13  8  2  0
 19 14  1  0
 31 27  2  0
M  END
>  <BrandName>  (29) 


>  <Applicants>  (29) 
Janssen

>  <CHEMBL_ID>  (29) 
CHEMBL3674570

>  <Canonical_Smiles>  (29) 
CC1(CCC(=CC1)c2c(ccc(n2)C3CC(OC(C3)(C)C)(C)C)NC(=O)c4[nH]c(cn4)C#N)C

>  <Chirality>  (29) 
Achiral Molecule

>  <First_Approval>  (29) 
nan

>  <Phase>  (29) 
2.0

>  <SC_Patent>  (29) 
nan

>  <Synonyms>  (29) 
EDICOTINIB | JNJ-40346527

>  <Withdrawn>  (29) 
nan

>  <Indications>  (29) 
nan

>  <Type>  (29) 
nan

>  <targets_id>  (29) 
nan

>  <Inchi>  (29) 
InChI=1S/C27H35N5O2/c1-25(2)11-9-17(10-12-25)22-21(32-24(33)23-29-16-19(15-28)30-23)8-7-20(31-22)18-13-26(3,4)34-27(5,6)14-18/h7-9,16,18H,10-14H2,1-6H3,(H,29,30)(H,32,33)

>  <stdInchikey>  (29) 
BNVPFDRNGHMRJS-UHFFFAOYSA-N

>  <csid>  (29) 
34951020

>  <Links>  (29) 
|http://www.chemspider.com/Chemical-Structure.34951020.html|https://www.ebi.ac.uk/chembldb/compound/inspect/CHEMBL3674570|https://pubchem.ncbi.nlm.nih.gov/compound/25230468|https://go.drugbank.com/drugs/DB12504|https://www.guidetopharmacology.org/GRAC/LigandDisplayForward?8942|https://precision.fda.gov/uniisearch/srs/unii/3NU609VYNF|https://www.bindingdb.org/bind/chemsearch/marvin/MolStructure.jsp?monomerid=98634

>  <LinkName>  (29) 
|ChemSpider|ChEMBL|PubChem|DrugBank|Guide to Pharmacology|FDA SRS|BindingDB

>  <lig_pdb_ID>  (29) 


>  <pdb_IDs>  (29) 


>  <indicationDB>  (29) 


>  <uniprotId>  (29) 


>  <indicationG2P>  (29) 
None

>  <MW>  (29) 
461.3

>  <HBA>  (29) 
5

>  <HBD>  (29) 
2

>  <NRB>  (29) 
4

>  <TPSA>  (29) 
103.7

>  <LogP>  (29) 
6.0

>  <RoF>  (29) 
1

>  <Melting point>  (29) 
nan

>  <Targets>  (29) 
nan

>  <Kinase families>  (29) 


>  <FDA_approved>  (29) 


$$$$
Ulecaciclib
     RDKit          2D

 35 39  0  0  0  0  0  0  0  0999 V2000
  -11.0166   -3.0150    0.0000 C   0  0  0  0  0  0  0  0  0  0  0  0
   -9.5166   -3.0147    0.0000 C   0  0  0  0  0  0  0  0  0  0  0  0
   -8.7670   -1.7154    0.0000 N   0  0  0  0  0  0  0  0  0  0  0  0
   -9.5173   -0.4166    0.0000 C   0  0  0  0  0  0  0  0  0  0  0  0
   -8.7676    0.8827    0.0000 C   0  0  0  0  0  0  0  0  0  0  0  0
   -7.2676    0.8830    0.0000 N   0  0  0  0  0  0  0  0  0  0  0  0
   -6.5179    2.1823    0.0000 C   0  0  0  0  0  0  0  0  0  0  0  0
   -5.0179    2.1827    0.0000 C   0  0  0  0  0  0  0  0  0  0  0  0
   -4.2676    0.8838    0.0000 C   0  0  0  0  0  0  0  0  0  0  0  0
   -2.7676    0.8842    0.0000 C   0  0  0  0  0  0  0  0  0  0  0  0
   -2.0179    2.1834    0.0000 C   0  0  0  0  0  0  0  0  0  0  0  0
   -0.5179    2.1838    0.0000 N   0  0  0  0  0  0  0  0  0  0  0  0
    0.2324    0.8850    0.0000 C   0  0  0  0  0  0  0  0  0  0  0  0
   -0.5173   -0.4143    0.0000 N   0  0  0  0  0  0  0  0  0  0  0  0
    0.2330   -1.7131    0.0000 C   0  0  0  0  0  0  0  0  0  0  0  0
    1.7330   -1.7127    0.0000 C   0  0  0  0  0  0  0  0  0  0  0  0
    2.4834   -3.0116    0.0000 F   0  0  0  0  0  0  0  0  0  0  0  0
    2.4827   -0.4135    0.0000 C   0  0  0  0  0  0  0  0  0  0  0  0
    3.9827   -0.4131    0.0000 C   0  0  0  0  0  0  0  0  0  0  0  0
    4.8641    0.8006    0.0000 S   0  0  0  0  0  0  0  0  0  0  0  0
    6.2908    0.3375    0.0000 C   0  0  0  0  0  0  0  0  0  0  0  0
    7.5041    1.2195    0.0000 N   0  0  0  0  0  0  0  0  0  0  0  0
    8.8746    0.6097    0.0000 C   0  0  0  0  0  0  0  0  0  0  0  0
   10.1734    1.3600    0.0000 C   0  0  0  0  0  0  0  0  0  0  0  0
   11.2884    0.3566    0.0000 C   0  0  0  0  0  0  0  0  0  0  0  0
   10.6786   -1.0138    0.0000 C   0  0  0  0  0  0  0  0  0  0  0  0
    9.1868   -0.8574    0.0000 C   0  0  0  0  0  0  0  0  0  0  0  0
    6.2912   -1.1625    0.0000 N   0  0  0  0  0  0  0  0  0  0  0  0
    4.8647   -1.6264    0.0000 C   0  0  0  0  0  0  0  0  0  0  0  0
    4.4015   -3.0531    0.0000 C   0  0  0  0  0  0  0  0  0  0  0  0
    1.7324    0.8853    0.0000 N   0  0  0  0  0  0  0  0  0  0  0  0
   -2.7683    3.4823    0.0000 N   0  0  0  0  0  0  0  0  0  0  0  0
   -4.2683    3.4819    0.0000 C   0  0  0  0  0  0  0  0  0  0  0  0
   -6.5173   -0.4158    0.0000 C   0  0  0  0  0  0  0  0  0  0  0  0
   -7.2670   -1.7150    0.0000 C   0  0  0  0  0  0  0  0  0  0  0  0
  1  2  1  0
  2  3  1  0
  3  4  1  0
  4  5  1  0
  5  6  1  0
  6  7  1  0
  7  8  1  0
  8  9  2  0
  9 10  1  0
 10 11  2  0
 11 12  1  0
 12 13  1  0
 13 14  2  0
 14 15  1  0
 15 16  2  0
 16 17  1  0
 16 18  1  0
 18 19  1  0
 19 20  1  0
 20 21  1  0
 21 22  1  0
 22 23  1  0
 23 24  1  0
 24 25  1  0
 25 26  1  0
 26 27  1  0
 21 28  2  0
 28 29  1  0
 29 30  1  0
 18 31  2  0
 11 32  1  0
 32 33  2  0
  6 34  1  0
 34 35  1  0
 35  3  1  0
 33  8  1  0
 31 13  1  0
 29 19  2  0
 27 23  1  0
M  END
>  <BrandName>  (30) 


>  <Applicants>  (30) 
('',)

>  <CHEMBL_ID>  (30) 
CHEMBL4067549

>  <Canonical_Smiles>  (30) 
CCN1CCN(Cc2ccc(Nc3ncc(F)c(-c4sc(NC5CCCC5)nc4C)n3)nc2)CC1

>  <Chirality>  (30) 
Achiral Molecule

>  <First_Approval>  (30) 
nan

>  <Phase>  (30) 
2.0

>  <SC_Patent>  (30) 
nan

>  <Synonyms>  (30) 
ULECACICLIB

>  <Withdrawn>  (30) 
nan

>  <Indications>  (30) 
nan

>  <Type>  (30) 
nan

>  <targets_id>  (30) 
nan

>  <Inchi>  (30) 
InChI=1S/C25H33FN8S/c1-3-33-10-12-34(13-11-33)16-18-8-9-21(27-14-18)31-24-28-15-20(26)22(32-24)23-17(2)29-25(35-23)30-19-6-4-5-7-19/h8-9,14-15,19H,3-7,10-13,16H2,1-2H3,(H,29,30)(H,27,28,31,32)

>  <stdInchikey>  (30) 
POFVJRKJJBFPII-UHFFFAOYSA-N

>  <csid>  (30) 
76738914

>  <Links>  (30) 
|http://www.chemspider.com/Chemical-Structure.76738914.html|https://www.ebi.ac.uk/chembldb/compound/inspect/CHEMBL4067549|https://pubchem.ncbi.nlm.nih.gov/compound/126535127|https://www.bindingdb.org/bind/chemsearch/marvin/MolStructure.jsp?monomerid=50501597

>  <LinkName>  (30) 
|ChemSpider|ChEMBL|PubChem|BindingDB

>  <lig_pdb_ID>  (30) 


>  <pdb_IDs>  (30) 


>  <indicationDB>  (30) 


>  <uniprotId>  (30) 


>  <indicationG2P>  (30) 


>  <MW>  (30) 
496.3

>  <HBA>  (30) 
9

>  <HBD>  (30) 
2

>  <NRB>  (30) 
8

>  <TPSA>  (30) 
82.1

>  <LogP>  (30) 
4.7

>  <RoF>  (30) 
0

>  <Melting point>  (30) 
nan

>  <Targets>  (30) 
nan

>  <Kinase families>  (30) 


>  <FDA_approved>  (30) 


$$$$
Afuresertib
     RDKit          2D

 27 29  0  0  0  0  0  0  0  0999 V2000
   -5.8253   -0.5770    0.0000 C   0  0  0  0  0  0  0  0  0  0  0  0
   -4.9725    0.6570    0.0000 N   0  0  0  0  0  0  0  0  0  0  0  0
   -3.4730    0.6924    0.0000 C   0  0  0  0  0  0  0  0  0  0  0  0
   -3.0433    2.1296    0.0000 C   0  0  0  0  0  0  0  0  0  0  0  0
   -4.2773    2.9823    0.0000 C   0  0  0  0  0  0  0  0  0  0  0  0
   -5.4697    2.0722    0.0000 N   0  0  0  0  0  0  0  0  0  0  0  0
   -1.6281    2.6267    0.0000 Cl  0  0  0  0  0  0  0  0  0  0  0  0
   -2.5628   -0.4999    0.0000 C   0  0  0  0  0  0  0  0  0  0  0  0
   -1.0633   -0.4644    0.0000 C   0  0  0  0  0  0  0  0  0  0  0  0
   -0.5661   -1.8797    0.0000 C   0  0  0  0  0  0  0  0  0  0  0  0
   -1.7585   -2.7898    0.0000 S   0  0  0  0  0  0  0  0  0  0  0  0
   -2.9925   -1.9370    0.0000 C   0  0  0  0  0  0  0  0  0  0  0  0
   -4.4077   -2.4342    0.0000 Cl  0  0  0  0  0  0  0  0  0  0  0  0
    0.8710   -2.3093    0.0000 C   0  0  0  0  0  0  0  0  0  0  0  0
    1.2175   -3.7688    0.0000 O   0  0  0  0  0  0  0  0  0  0  0  0
    1.9617   -1.2796    0.0000 N   0  0  0  0  0  0  0  0  0  0  0  0
    3.3988   -1.7092    0.0000 C   0  0  0  0  0  0  0  0  0  0  0  0
    4.4895   -0.6795    0.0000 C   0  0  0  0  0  0  0  0  0  0  0  0
    4.1430    0.7800    0.0000 C   0  0  0  0  0  0  0  0  0  0  0  0
    5.2337    1.8097    0.0000 C   0  0  0  0  0  0  0  0  0  0  0  0
    4.8872    3.2692    0.0000 C   0  0  0  0  0  0  0  0  0  0  0  0
    3.4501    3.6988    0.0000 C   0  0  0  0  0  0  0  0  0  0  0  0
    2.3594    2.6691    0.0000 C   0  0  0  0  0  0  0  0  0  0  0  0
    2.7059    1.2096    0.0000 C   0  0  0  0  0  0  0  0  0  0  0  0
    0.9223    3.0988    0.0000 F   0  0  0  0  0  0  0  0  0  0  0  0
    3.7453   -3.1687    0.0000 C   0  0  0  0  0  0  0  0  0  0  0  0
    2.6546   -4.1984    0.0000 N   0  0  0  0  0  0  0  0  0  0  0  0
  1  2  1  0
  2  3  1  0
  3  4  2  0
  4  5  1  0
  5  6  2  0
  4  7  1  0
  3  8  1  0
  8  9  1  0
  9 10  2  0
 10 11  1  0
 11 12  1  0
 12 13  1  0
 10 14  1  0
 14 15  2  0
 14 16  1  0
 16 17  1  0
 17 18  1  1
 18 19  1  0
 19 20  2  0
 20 21  1  0
 21 22  2  0
 22 23  1  0
 23 24  2  0
 23 25  1  0
 17 26  1  0
 26 27  1  0
  6  2  1  0
 12  8  2  0
 24 19  1  0
M  END
>  <BrandName>  (31) 


>  <Applicants>  (31) 
GlaxoSmithKline

>  <CHEMBL_ID>  (31) 
CHEMBL2219422

>  <Canonical_Smiles>  (31) 
Cn1c(c(cn1)Cl)c2cc(sc2Cl)C(=O)N[C@@H](Cc3cccc(c3)F)CN

>  <Chirality>  (31) 
Single Stereoisomer

>  <First_Approval>  (31) 
nan

>  <Phase>  (31) 
2.0

>  <SC_Patent>  (31) 
nan

>  <Synonyms>  (31) 
AFURESERTIB | ASB-183 | ASB183 | GSK-2110183 | GSK-2110183C | GSK2110183 | GSK2110183C

>  <Withdrawn>  (31) 
nan

>  <Indications>  (31) 
nan

>  <Type>  (31) 
nan

>  <targets_id>  (31) 
P31749|P31751|Q9Y243

>  <Inchi>  (31) 
InChI=1S/C18H17Cl2FN4OS/c1-25-16(14(19)9-23-25)13-7-15(27-17(13)20)18(26)24-12(8-22)6-10-3-2-4-11(21)5-10/h2-5,7,9,12H,6,8,22H2,1H3,(H,24,26)/t12-/m0/s1

>  <stdInchikey>  (31) 
AFJRDFWMXUECEW-LBPRGKRZSA-N

>  <csid>  (31) 
28651809

>  <Links>  (31) 
|http://www.chemspider.com/Chemical-Structure.28651809.html|https://www.ebi.ac.uk/chembldb/compound/inspect/CHEMBL2219422|https://pubchem.ncbi.nlm.nih.gov/compound/46843057|https://go.drugbank.com/drugs/DB11648|https://www.guidetopharmacology.org/GRAC/LigandDisplayForward?7890|https://zinc15.docking.org/substances/ZINC000043197674|https://precision.fda.gov/uniisearch/srs/unii/8739X25QI3|https://www.bindingdb.org/bind/chemsearch/marvin/MolStructure.jsp?monomerid=50502477

>  <LinkName>  (31) 
|ChemSpider|ChEMBL|PubChem|DrugBank|Guide to Pharmacology|ZINC|FDA SRS|BindingDB

>  <lig_pdb_ID>  (31) 


>  <pdb_IDs>  (31) 


>  <indicationDB>  (31) 


>  <uniprotId>  (31) 


>  <indicationG2P>  (31) 
None

>  <MW>  (31) 
426.0

>  <HBA>  (31) 
5

>  <HBD>  (31) 
2

>  <NRB>  (31) 
6

>  <TPSA>  (31) 
72.9

>  <LogP>  (31) 
3.9

>  <RoF>  (31) 
0

>  <Melting point>  (31) 
nan

>  <Targets>  (31) 
AKT1; AKT2; AKT3

>  <Kinase families>  (31) 
AGC

>  <FDA_approved>  (31) 


$$$$
Zunsemetinib
     RDKit          2D

 36 39  0  0  0  0  0  0  0  0999 V2000
   -0.5600   -3.7431    0.0000 C   0  0  0  0  0  0  0  0  0  0  0  0
   -1.6493   -2.7119    0.0000 C   0  0  0  0  0  0  0  0  0  0  0  0
   -3.0870   -3.1396    0.0000 C   0  0  0  0  0  0  0  0  0  0  0  0
   -4.1763   -2.1084    0.0000 N   0  0  0  0  0  0  0  0  0  0  0  0
   -3.8279   -0.6494    0.0000 C   0  0  0  0  0  0  0  0  0  0  0  0
   -4.9172    0.3818    0.0000 C   0  0  0  0  0  0  0  0  0  0  0  0
   -4.5688    1.8408    0.0000 C   0  0  0  0  0  0  0  0  0  0  0  0
   -5.6581    2.8720    0.0000 C   0  0  0  0  0  0  0  0  0  0  0  0
   -7.0958    2.4443    0.0000 N   0  0  0  0  0  0  0  0  0  0  0  0
   -7.4442    0.9853    0.0000 C   0  0  0  0  0  0  0  0  0  0  0  0
   -8.8819    0.5575    0.0000 C   0  0  0  0  0  0  0  0  0  0  0  0
   -8.4542   -0.8802    0.0000 C   0  0  0  0  0  0  0  0  0  0  0  0
   -9.3097    1.9953    0.0000 C   0  0  0  0  0  0  0  0  0  0  0  0
  -10.3197    0.1298    0.0000 O   0  0  0  0  0  0  0  0  0  0  0  0
   -6.3549   -0.0459    0.0000 N   0  0  0  0  0  0  0  0  0  0  0  0
   -2.3902   -0.2217    0.0000 C   0  0  0  0  0  0  0  0  0  0  0  0
   -1.3009   -1.2529    0.0000 C   0  0  0  0  0  0  0  0  0  0  0  0
    0.1368   -0.8252    0.0000 N   0  0  0  0  0  0  0  0  0  0  0  0
    1.2261   -1.8564    0.0000 C   0  0  0  0  0  0  0  0  0  0  0  0
    0.8777   -3.3154    0.0000 C   0  0  0  0  0  0  0  0  0  0  0  0
    2.6638   -1.4287    0.0000 C   0  0  0  0  0  0  0  0  0  0  0  0
    3.0123    0.0303    0.0000 C   0  0  0  0  0  0  0  0  0  0  0  0
    4.4500    0.4580    0.0000 O   0  0  0  0  0  0  0  0  0  0  0  0
    5.5393   -0.5732    0.0000 C   0  0  0  0  0  0  0  0  0  0  0  0
    6.9770   -0.1455    0.0000 C   0  0  0  0  0  0  0  0  0  0  0  0
    8.0663   -1.1767    0.0000 N   0  0  0  0  0  0  0  0  0  0  0  0
    9.5040   -0.7489    0.0000 C   0  0  0  0  0  0  0  0  0  0  0  0
    9.8524    0.7100    0.0000 C   0  0  0  0  0  0  0  0  0  0  0  0
   11.2902    1.1378    0.0000 F   0  0  0  0  0  0  0  0  0  0  0  0
    8.7631    1.7413    0.0000 C   0  0  0  0  0  0  0  0  0  0  0  0
    7.3254    1.3135    0.0000 C   0  0  0  0  0  0  0  0  0  0  0  0
    6.2361    2.3447    0.0000 F   0  0  0  0  0  0  0  0  0  0  0  0
    1.9230    1.0615    0.0000 C   0  0  0  0  0  0  0  0  0  0  0  0
    2.2714    2.5205    0.0000 Cl  0  0  0  0  0  0  0  0  0  0  0  0
    0.4853    0.6338    0.0000 C   0  0  0  0  0  0  0  0  0  0  0  0
   -0.6040    1.6650    0.0000 O   0  0  0  0  0  0  0  0  0  0  0  0
  1  2  1  0
  2  3  2  0
  3  4  1  0
  4  5  2  0
  5  6  1  0
  6  7  2  0
  7  8  1  0
  8  9  2  0
  9 10  1  0
 10 11  1  0
 11 12  1  0
 11 13  1  0
 11 14  1  0
 10 15  2  0
  5 16  1  0
 16 17  2  0
 17 18  1  0
 18 19  1  0
 19 20  1  0
 19 21  2  0
 21 22  1  0
 22 23  1  0
 23 24  1  0
 24 25  1  0
 25 26  2  0
 26 27  1  0
 27 28  2  0
 28 29  1  0
 28 30  1  0
 30 31  2  0
 31 32  1  0
 22 33  2  0
 33 34  1  0
 33 35  1  0
 35 36  2  0
 17  2  1  0
 35 18  1  0
 15  6  1  0
 31 25  1  0
M  END
>  <BrandName>  (32) 


>  <Applicants>  (32) 
Aclaris Therapeutics

>  <CHEMBL_ID>  (32) 
CHEMBL3704901

>  <Canonical_Smiles>  (32) 
Cc1cnc(-c2ccnc(C(C)(C)O)n2)cc1-n1c(C)cc(OCc2ncc(F)cc2F)c(Cl)c1=O

>  <Chirality>  (32) 
Achiral Molecule

>  <First_Approval>  (32) 
nan

>  <Phase>  (32) 
2.0

>  <SC_Patent>  (32) 
nan

>  <Synonyms>  (32) 
ATI 450 | ATI-450 | ATI450 | CDD-450 | CDD450 | ZUNSEMETINIB

>  <Withdrawn>  (32) 
nan

>  <Indications>  (32) 
nan

>  <Type>  (32) 
nan

>  <targets_id>  (32) 
nan

>  <Inchi>  (32) 
InChI=1S/C25H22ClF2N5O3/c1-13-10-30-18(17-5-6-29-24(32-17)25(3,4)35)9-20(13)33-14(2)7-21(22(26)23(33)34)36-12-19-16(28)8-15(27)11-31-19/h5-11,35H,12H2,1-4H3

>  <stdInchikey>  (32) 
FQPQMJULRZINPV-UHFFFAOYSA-N

>  <csid>  (32) 
58947940

>  <Links>  (32) 
|http://www.chemspider.com/Chemical-Structure.58947940.html|https://www.ebi.ac.uk/chembldb/compound/inspect/CHEMBL3704901|https://pubchem.ncbi.nlm.nih.gov/compound/86291496|https://zinc15.docking.org/substances/ZINC000220110608|https://precision.fda.gov/uniisearch/srs/unii/AX2VWG0ZCR|https://www.bindingdb.org/bind/chemsearch/marvin/MolStructure.jsp?monomerid=175242

>  <LinkName>  (32) 
|ChemSpider|ChEMBL|PubChem|ZINC|FDA SRS|BindingDB

>  <lig_pdb_ID>  (32) 


>  <pdb_IDs>  (32) 


>  <indicationDB>  (32) 


>  <uniprotId>  (32) 


>  <indicationG2P>  (32) 


>  <MW>  (32) 
513.1

>  <HBA>  (32) 
8

>  <HBD>  (32) 
1

>  <NRB>  (32) 
6

>  <TPSA>  (32) 
103.0

>  <LogP>  (32) 
4.4

>  <RoF>  (32) 
1

>  <Melting point>  (32) 
nan

>  <Targets>  (32) 
nan

>  <Kinase families>  (32) 


>  <FDA_approved>  (32) 


$$$$
Empesertib
     RDKit          2D

 40 44  0  0  0  0  0  0  0  0999 V2000
   -9.2328    3.0446    0.0000 C   0  0  0  0  0  0  0  0  0  0  0  0
   -8.6026    1.6834    0.0000 C   0  0  0  0  0  0  0  0  0  0  0  0
   -9.4663    0.4570    0.0000 C   0  0  0  0  0  0  0  0  0  0  0  0
  -10.9602    0.5918    0.0000 C   0  0  0  0  0  0  0  0  0  0  0  0
  -11.8239   -0.6345    0.0000 C   0  0  0  0  0  0  0  0  0  0  0  0
  -11.1937   -1.9957    0.0000 C   0  0  0  0  0  0  0  0  0  0  0  0
   -9.6998   -2.1306    0.0000 C   0  0  0  0  0  0  0  0  0  0  0  0
   -8.8361   -0.9042    0.0000 C   0  0  0  0  0  0  0  0  0  0  0  0
  -12.0575   -3.2221    0.0000 F   0  0  0  0  0  0  0  0  0  0  0  0
   -7.1086    1.5485    0.0000 C   0  0  0  0  0  0  0  0  0  0  0  0
   -6.2449    2.7749    0.0000 O   0  0  0  0  0  0  0  0  0  0  0  0
   -6.4784    0.1873    0.0000 N   0  0  0  0  0  0  0  0  0  0  0  0
   -4.9845    0.0525    0.0000 C   0  0  0  0  0  0  0  0  0  0  0  0
   -4.3543   -1.3087    0.0000 C   0  0  0  0  0  0  0  0  0  0  0  0
   -2.8604   -1.4435    0.0000 C   0  0  0  0  0  0  0  0  0  0  0  0
   -1.9966   -0.2171    0.0000 C   0  0  0  0  0  0  0  0  0  0  0  0
   -2.6268    1.1440    0.0000 C   0  0  0  0  0  0  0  0  0  0  0  0
   -4.1208    1.2789    0.0000 C   0  0  0  0  0  0  0  0  0  0  0  0
   -0.5027   -0.3520    0.0000 C   0  0  0  0  0  0  0  0  0  0  0  0
    0.1275   -1.7132    0.0000 C   0  0  0  0  0  0  0  0  0  0  0  0
    1.6214   -1.8480    0.0000 C   0  0  0  0  0  0  0  0  0  0  0  0
    2.4851   -0.6216    0.0000 C   0  0  0  0  0  0  0  0  0  0  0  0
    3.9745   -0.4429    0.0000 N   0  0  0  0  0  0  0  0  0  0  0  0
    4.2647    1.0287    0.0000 C   0  0  0  0  0  0  0  0  0  0  0  0
    2.9548    1.7595    0.0000 N   0  0  0  0  0  0  0  0  0  0  0  0
    1.8549    0.7396    0.0000 N   0  0  0  0  0  0  0  0  0  0  0  0
    0.3610    0.8744    0.0000 C   0  0  0  0  0  0  0  0  0  0  0  0
    5.6259    1.6589    0.0000 N   0  0  0  0  0  0  0  0  0  0  0  0
    6.8523    0.7952    0.0000 C   0  0  0  0  0  0  0  0  0  0  0  0
    6.7174   -0.6987    0.0000 C   0  0  0  0  0  0  0  0  0  0  0  0
    7.9438   -1.5625    0.0000 C   0  0  0  0  0  0  0  0  0  0  0  0
    9.3050   -0.9323    0.0000 C   0  0  0  0  0  0  0  0  0  0  0  0
    9.4398    0.5617    0.0000 C   0  0  0  0  0  0  0  0  0  0  0  0
    8.2135    1.4254    0.0000 C   0  0  0  0  0  0  0  0  0  0  0  0
    8.3483    2.9193    0.0000 O   0  0  0  0  0  0  0  0  0  0  0  0
    9.7095    3.5495    0.0000 C   0  0  0  0  0  0  0  0  0  0  0  0
   10.5314   -1.7960    0.0000 S   0  0  0  0  0  0  0  0  0  0  0  0
   11.3951   -0.5696    0.0000 O   0  0  0  0  0  0  0  0  0  0  0  0
    9.6676   -3.0223    0.0000 O   0  0  0  0  0  0  0  0  0  0  0  0
   11.7577   -2.6597    0.0000 C   0  0  0  0  0  0  0  0  0  0  0  0
  2  1  1  1
  2  3  1  0
  3  4  2  0
  4  5  1  0
  5  6  2  0
  6  7  1  0
  7  8  2  0
  6  9  1  0
  2 10  1  0
 10 11  2  0
 10 12  1  0
 12 13  1  0
 13 14  2  0
 14 15  1  0
 15 16  2  0
 16 17  1  0
 17 18  2  0
 16 19  1  0
 19 20  1  0
 20 21  2  0
 21 22  1  0
 22 23  2  0
 23 24  1  0
 24 25  2  0
 25 26  1  0
 26 27  1  0
 24 28  1  0
 28 29  1  0
 29 30  2  0
 30 31  1  0
 31 32  2  0
 32 33  1  0
 33 34  2  0
 34 35  1  0
 35 36  1  0
 32 37  1  0
 37 38  2  0
 37 39  2  0
 37 40  1  0
  8  3  1  0
 18 13  1  0
 27 19  2  0
 26 22  1  0
 34 29  1  0
M  END
>  <BrandName>  (33) 


>  <Applicants>  (33) 
Bayer

>  <CHEMBL_ID>  (33) 
CHEMBL4303241

>  <Canonical_Smiles>  (33) 
C[C@H](c1ccc(cc1)F)C(=O)Nc2ccc(cc2)c3ccc4nc(nn4c3)Nc5ccc(cc5OC)S(=O)(=O)C

>  <Chirality>  (33) 
Single Stereoisomer

>  <First_Approval>  (33) 
nan

>  <Phase>  (33) 
2.0

>  <SC_Patent>  (33) 
nan

>  <Synonyms>  (33) 
(-)-BAY-1161909 | BAY 1161909 | BAY-1161909 | BAY1161909 | EMPESERTIB | MPS1-IN-5

>  <Withdrawn>  (33) 
nan

>  <Indications>  (33) 
nan

>  <Type>  (33) 
nan

>  <targets_id>  (33) 
nan

>  <Inchi>  (33) 
InChI=1S/C29H26FN5O4S/c1-18(19-4-9-22(30)10-5-19)28(36)31-23-11-6-20(7-12-23)21-8-15-27-33-29(34-35(27)17-21)32-25-14-13-24(40(3,37)38)16-26(25)39-2/h4-18H,1-3H3,(H,31,36)(H,32,34)/t18-/m1/s1

>  <stdInchikey>  (33) 
NRJKIOCCERLIDG-GOSISDBHSA-N

>  <csid>  (33) 
35308224

>  <Links>  (33) 
|http://www.chemspider.com/Chemical-Structure.35308224.html|https://www.ebi.ac.uk/chembldb/compound/inspect/CHEMBL4303241|https://pubchem.ncbi.nlm.nih.gov/compound/71599640|https://www.rcsb.org/ligand/8QW|https://www.ebi.ac.uk/pdbe-srv/pdbechem/chemicalCompound/show/8QW|https://www.guidetopharmacology.org/GRAC/LigandDisplayForward?9427|https://zinc15.docking.org/substances/ZINC000206769279|https://precision.fda.gov/uniisearch/srs/unii/02Y3Z2756M|https://www.bindingdb.org/bind/chemsearch/marvin/MolStructure.jsp?monomerid=329334

>  <LinkName>  (33) 
|ChemSpider|ChEMBL|PubChem|RCSB|PDBe|Guide to Pharmacology|ZINC|FDA SRS|BindingDB

>  <lig_pdb_ID>  (33) 
8QW

>  <pdb_IDs>  (33) 
5n9s 6tnb

>  <indicationDB>  (33) 


>  <uniprotId>  (33) 


>  <indicationG2P>  (33) 
None

>  <MW>  (33) 
559.2

>  <HBA>  (33) 
8

>  <HBD>  (33) 
2

>  <NRB>  (33) 
8

>  <TPSA>  (33) 
114.7

>  <LogP>  (33) 
5.4

>  <RoF>  (33) 
2

>  <Melting point>  (33) 
nan

>  <Targets>  (33) 
nan

>  <Kinase families>  (33) 


>  <FDA_approved>  (33) 


$$$$
Anizatrectinib
     RDKit          2D

 39 43  0  0  0  0  0  0  0  0999 V2000
    1.8359   -1.8036    0.0000 C   0  0  0  0  0  0  0  0  0  0  0  0
    2.6665   -0.5545    0.0000 C   0  0  0  0  0  0  0  0  0  0  0  0
    4.1652   -0.4922    0.0000 C   0  0  0  0  0  0  0  0  0  0  0  0
    4.5690    0.9524    0.0000 N   0  0  0  0  0  0  0  0  0  0  0  0
    3.3199    1.7829    0.0000 N   0  0  0  0  0  0  0  0  0  0  0  0
    2.1441    0.8516    0.0000 C   0  0  0  0  0  0  0  0  0  0  0  0
    0.6995    1.2554    0.0000 N   0  0  0  0  0  0  0  0  0  0  0  0
   -0.3726    0.2063    0.0000 C   0  0  0  0  0  0  0  0  0  0  0  0
   -0.0001   -1.2467    0.0000 O   0  0  0  0  0  0  0  0  0  0  0  0
   -1.8172    0.6102    0.0000 N   0  0  0  0  0  0  0  0  0  0  0  0
   -2.8893   -0.4389    0.0000 C   0  0  0  0  0  0  0  0  0  0  0  0
   -2.6707   -1.9229    0.0000 C   0  0  0  0  0  0  0  0  0  0  0  0
   -4.0144   -2.5894    0.0000 N   0  0  0  0  0  0  0  0  0  0  0  0
   -5.0636   -1.5173    0.0000 C   0  0  0  0  0  0  0  0  0  0  0  0
   -4.3682   -0.1883    0.0000 C   0  0  0  0  0  0  0  0  0  0  0  0
   -5.0347    1.1555    0.0000 C   0  0  0  0  0  0  0  0  0  0  0  0
   -4.2042    2.4046    0.0000 C   0  0  0  0  0  0  0  0  0  0  0  0
   -4.8707    3.7484    0.0000 C   0  0  0  0  0  0  0  0  0  0  0  0
   -4.0401    4.9975    0.0000 F   0  0  0  0  0  0  0  0  0  0  0  0
   -6.3677    3.8431    0.0000 C   0  0  0  0  0  0  0  0  0  0  0  0
   -7.1982    2.5940    0.0000 C   0  0  0  0  0  0  0  0  0  0  0  0
   -6.5317    1.2502    0.0000 C   0  0  0  0  0  0  0  0  0  0  0  0
   -4.2651   -4.0683    0.0000 C   0  0  0  0  0  0  0  0  0  0  0  0
   -5.6712   -4.5907    0.0000 C   0  0  0  0  0  0  0  0  0  0  0  0
   -5.9219   -6.0696    0.0000 O   0  0  0  0  0  0  0  0  0  0  0  0
   -7.3280   -6.5920    0.0000 C   0  0  0  0  0  0  0  0  0  0  0  0
    3.2576    3.2816    0.0000 C   0  0  0  0  0  0  0  0  0  0  0  0
    4.5244    4.0849    0.0000 C   0  0  0  0  0  0  0  0  0  0  0  0
    4.4621    5.5836    0.0000 C   0  0  0  0  0  0  0  0  0  0  0  0
    3.1330    6.2790    0.0000 C   0  0  0  0  0  0  0  0  0  0  0  0
    1.8663    5.4757    0.0000 C   0  0  0  0  0  0  0  0  0  0  0  0
    1.9286    3.9770    0.0000 C   0  0  0  0  0  0  0  0  0  0  0  0
    5.0965   -1.6681    0.0000 C   0  0  0  0  0  0  0  0  0  0  0  0
    4.5438   -3.0626    0.0000 C   0  0  0  0  0  0  0  0  0  0  0  0
    5.4751   -4.2384    0.0000 N   0  0  0  0  0  0  0  0  0  0  0  0
    6.9591   -4.0198    0.0000 C   0  0  0  0  0  0  0  0  0  0  0  0
    7.8904   -5.1957    0.0000 C   0  0  0  0  0  0  0  0  0  0  0  0
    7.5118   -2.6253    0.0000 N   0  0  0  0  0  0  0  0  0  0  0  0
    6.5805   -1.4495    0.0000 C   0  0  0  0  0  0  0  0  0  0  0  0
  1  2  1  0
  2  3  1  0
  3  4  2  0
  4  5  1  0
  5  6  1  0
  6  7  1  0
  7  8  1  0
  8  9  2  0
  8 10  1  0
 11 10  1  6
 11 12  1  0
 12 13  1  0
 13 14  1  0
 14 15  1  0
 15 16  1  1
 16 17  2  0
 17 18  1  0
 18 19  1  0
 18 20  2  0
 20 21  1  0
 21 22  2  0
 13 23  1  0
 23 24  1  0
 24 25  1  0
 25 26  1  0
  5 27  1  0
 27 28  2  0
 28 29  1  0
 29 30  2  0
 30 31  1  0
 31 32  2  0
  3 33  1  0
 33 34  2  0
 34 35  1  0
 35 36  2  0
 36 37  1  0
 36 38  1  0
 38 39  2  0
  6  2  2  0
 15 11  1  0
 22 16  1  0
 32 27  1  0
 39 33  1  0
M  END
>  <BrandName>  (34) 


>  <Applicants>  (34) 
Array BioPharma

>  <CHEMBL_ID>  (34) 
CHEMBL5095088

>  <Canonical_Smiles>  (34) 
CC1C(=NN(C=1NC(=O)N[C@@H]1CN(C[C@H]1C1C=C(F)C=CC=1)CCOC)C1C=CC=CC=1)C1=CN=C(C)N=C1

>  <Chirality>  (34) 
Single Stereoisomer

>  <First_Approval>  (34) 
nan

>  <Phase>  (34) 
2.0

>  <SC_Patent>  (34) 
nan

>  <Synonyms>  (34) 
ANIZATRECTINIB | ANIZATRECTINIB 

>  <Withdrawn>  (34) 
nan

>  <Indications>  (34) 
nan

>  <Type>  (34) 
nan

>  <targets_id>  (34) 
nan

>  <Inchi>  (34) 
InChI=1S/C29H32FN7O2/c1-19-27(22-15-31-20(2)32-16-22)35-37(24-10-5-4-6-11-24)28(19)34-29(38)33-26-18-36(12-13-39-3)17-25(26)21-8-7-9-23(30)14-21/h4-11,14-16,25-26H,12-13,17-18H2,1-3H3,(H2,33,34,38)/t25-,26+/m0/s1

>  <stdInchikey>  (34) 
BGKSBHPSVMJTFL-IZZNHLLZSA-N

>  <csid>  (34) 
115009485

>  <Links>  (34) 
|http://www.chemspider.com/Chemical-Structure.115009485.html|https://www.ebi.ac.uk/chembldb/compound/inspect/CHEMBL5095088|https://pubchem.ncbi.nlm.nih.gov/compound/92135967

>  <LinkName>  (34) 
|ChemSpider|ChEMBL|PubChem

>  <lig_pdb_ID>  (34) 


>  <pdb_IDs>  (34) 


>  <indicationDB>  (34) 


>  <uniprotId>  (34) 


>  <indicationG2P>  (34) 


>  <MW>  (34) 
529.3

>  <HBA>  (34) 
7

>  <HBD>  (34) 
2

>  <NRB>  (34) 
8

>  <TPSA>  (34) 
97.2

>  <LogP>  (34) 
4.3

>  <RoF>  (34) 
1

>  <Melting point>  (34) 
nan

>  <Targets>  (34) 
nan

>  <Kinase families>  (34) 


>  <FDA_approved>  (34) 


$$$$
Gandotinib
     RDKit          2D

 33 37  0  0  0  0  0  0  0  0999 V2000
    1.0312   -7.5557    0.0000 C   0  0  0  0  0  0  0  0  0  0  0  0
    1.0095   -6.0559    0.0000 C   0  0  0  0  0  0  0  0  0  0  0  0
    2.2102   -5.1568    0.0000 C   0  0  0  0  0  0  0  0  0  0  0  0
    1.7261   -3.7371    0.0000 C   0  0  0  0  0  0  0  0  0  0  0  0
    0.2263   -3.7587    0.0000 N   0  0  0  0  0  0  0  0  0  0  0  0
   -0.2166   -5.1918    0.0000 N   0  0  0  0  0  0  0  0  0  0  0  0
    2.5902   -2.5109    0.0000 N   0  0  0  0  0  0  0  0  0  0  0  0
    1.9603   -1.1496    0.0000 C   0  0  0  0  0  0  0  0  0  0  0  0
    2.8244    0.0766    0.0000 C   0  0  0  0  0  0  0  0  0  0  0  0
    2.1946    1.4379    0.0000 C   0  0  0  0  0  0  0  0  0  0  0  0
    0.7007    1.5732    0.0000 C   0  0  0  0  0  0  0  0  0  0  0  0
   -0.1984    2.7738    0.0000 N   0  0  0  0  0  0  0  0  0  0  0  0
   -1.6182    2.2898    0.0000 C   0  0  0  0  0  0  0  0  0  0  0  0
   -1.5965    0.7899    0.0000 C   0  0  0  0  0  0  0  0  0  0  0  0
   -0.1634    0.3470    0.0000 N   0  0  0  0  0  0  0  0  0  0  0  0
    0.4665   -1.0143    0.0000 N   0  0  0  0  0  0  0  0  0  0  0  0
   -2.7972   -0.1092    0.0000 C   0  0  0  0  0  0  0  0  0  0  0  0
   -4.1762    0.4811    0.0000 C   0  0  0  0  0  0  0  0  0  0  0  0
   -4.3545    1.9704    0.0000 C   0  0  0  0  0  0  0  0  0  0  0  0
   -5.7335    2.5607    0.0000 C   0  0  0  0  0  0  0  0  0  0  0  0
   -6.9341    1.6616    0.0000 C   0  0  0  0  0  0  0  0  0  0  0  0
   -6.7558    0.1722    0.0000 C   0  0  0  0  0  0  0  0  0  0  0  0
   -5.3768   -0.4181    0.0000 C   0  0  0  0  0  0  0  0  0  0  0  0
   -5.1985   -1.9074    0.0000 F   0  0  0  0  0  0  0  0  0  0  0  0
   -8.3131    2.2518    0.0000 Cl  0  0  0  0  0  0  0  0  0  0  0  0
   -2.8443    3.1538    0.0000 C   0  0  0  0  0  0  0  0  0  0  0  0
    3.0586    2.6641    0.0000 C   0  0  0  0  0  0  0  0  0  0  0  0
    4.5525    2.5288    0.0000 N   0  0  0  0  0  0  0  0  0  0  0  0
    5.1824    1.1675    0.0000 C   0  0  0  0  0  0  0  0  0  0  0  0
    6.6762    1.0322    0.0000 C   0  0  0  0  0  0  0  0  0  0  0  0
    7.5403    2.2584    0.0000 O   0  0  0  0  0  0  0  0  0  0  0  0
    6.9105    3.6197    0.0000 C   0  0  0  0  0  0  0  0  0  0  0  0
    5.4166    3.7550    0.0000 C   0  0  0  0  0  0  0  0  0  0  0  0
  1  2  1  0
  2  3  2  0
  3  4  1  0
  4  5  2  0
  5  6  1  0
  4  7  1  0
  7  8  1  0
  8  9  1  0
  9 10  2  0
 10 11  1  0
 11 12  2  0
 12 13  1  0
 13 14  2  0
 14 15  1  0
 15 16  1  0
 14 17  1  0
 17 18  1  0
 18 19  2  0
 19 20  1  0
 20 21  2  0
 21 22  1  0
 22 23  2  0
 23 24  1  0
 21 25  1  0
 13 26  1  0
 10 27  1  0
 27 28  1  0
 28 29  1  0
 29 30  1  0
 30 31  1  0
 31 32  1  0
 32 33  1  0
  6  2  1  0
 16  8  2  0
 15 11  1  0
 23 18  1  0
 33 28  1  0
M  END
>  <BrandName>  (35) 


>  <Applicants>  (35) 
Eli Lilly

>  <CHEMBL_ID>  (35) 
CHEMBL2107823

>  <Canonical_Smiles>  (35) 
Cc1cc(n[nH]1)Nc2cc(c3nc(c(n3n2)Cc4ccc(cc4F)Cl)C)CN5CCOCC5

>  <Chirality>  (35) 
Achiral Molecule

>  <First_Approval>  (35) 
nan

>  <Phase>  (35) 
2.0

>  <SC_Patent>  (35) 
nan

>  <Synonyms>  (35) 
GANDOTINIB | LY-2784544 | LY2784544

>  <Withdrawn>  (35) 
nan

>  <Indications>  (35) 
nan

>  <Type>  (35) 
nan

>  <targets_id>  (35) 
O60674

>  <Inchi>  (35) 
InChI=1S/C23H25ClFN7O/c1-14-9-21(29-28-14)27-22-11-17(13-31-5-7-33-8-6-31)23-26-15(2)20(32(23)30-22)10-16-3-4-18(24)12-19(16)25/h3-4,9,11-12H,5-8,10,13H2,1-2H3,(H2,27,28,29,30)

>  <stdInchikey>  (35) 
SQSZANZGUXWJEA-UHFFFAOYSA-N

>  <csid>  (35) 
25027412

>  <Links>  (35) 
|http://www.chemspider.com/Chemical-Structure.25027412.html|https://www.ebi.ac.uk/chembldb/compound/inspect/CHEMBL2107823|https://pubchem.ncbi.nlm.nih.gov/compound/46213929|https://go.drugbank.com/drugs/DB13040|https://www.rcsb.org/ligand/QQC|https://www.ebi.ac.uk/pdbe-srv/pdbechem/chemicalCompound/show/QQC|https://www.guidetopharmacology.org/GRAC/LigandDisplayForward?7909|https://zinc15.docking.org/substances/ZINC000068245097|https://precision.fda.gov/uniisearch/srs/unii/ANC71R916O

>  <LinkName>  (35) 
|ChemSpider|ChEMBL|PubChem|DrugBank|RCSB|PDBe|Guide to Pharmacology|ZINC|FDA SRS

>  <lig_pdb_ID>  (35) 
QQC

>  <pdb_IDs>  (35) 
8bm2

>  <indicationDB>  (35) 


>  <uniprotId>  (35) 


>  <indicationG2P>  (35) 
None

>  <MW>  (35) 
469.2

>  <HBA>  (35) 
7

>  <HBD>  (35) 
2

>  <NRB>  (35) 
6

>  <TPSA>  (35) 
83.4

>  <LogP>  (35) 
4.0

>  <RoF>  (35) 
0

>  <Melting point>  (35) 
nan

>  <Targets>  (35) 
JAK2

>  <Kinase families>  (35) 
Tyr

>  <FDA_approved>  (35) 


$$$$
Zotiraciclib
     RDKit          2D

 28 31  0  0  0  0  0  0  0  0999 V2000
   -5.7736   -2.6673    0.0000 C   0  0  0  0  0  0  0  0  0  0  0  0
   -4.3450   -2.2098    0.0000 N   0  0  0  0  0  0  0  0  0  0  0  0
   -3.6465   -3.5372    0.0000 C   0  0  0  0  0  0  0  0  0  0  0  0
   -2.5360   -4.5457    0.0000 C   0  0  0  0  0  0  0  0  0  0  0  0
   -1.1477   -5.1135    0.0000 C   0  0  0  0  0  0  0  0  0  0  0  0
    0.3512   -5.1722    0.0000 C   0  0  0  0  0  0  0  0  0  0  0  0
    1.7797   -4.7148    0.0000 C   0  0  0  0  0  0  0  0  0  0  0  0
    2.9657   -3.7963    0.0000 O   0  0  0  0  0  0  0  0  0  0  0  0
    3.7799   -2.1715    0.0000 C   0  0  0  0  0  0  0  0  0  0  0  0
    5.2787   -2.2303    0.0000 C   0  0  0  0  0  0  0  0  0  0  0  0
    6.0790   -0.9616    0.0000 C   0  0  0  0  0  0  0  0  0  0  0  0
    5.3805    0.3658    0.0000 C   0  0  0  0  0  0  0  0  0  0  0  0
    3.8816    0.4245    0.0000 C   0  0  0  0  0  0  0  0  0  0  0  0
    3.0813   -0.8441    0.0000 C   0  0  0  0  0  0  0  0  0  0  0  0
    3.1830    1.7520    0.0000 C   0  0  0  0  0  0  0  0  0  0  0  0
    3.6819    3.2107    0.0000 C   0  0  0  0  0  0  0  0  0  0  0  0
    2.9834    4.5382    0.0000 C   0  0  0  0  0  0  0  0  0  0  0  0
    1.4845    4.5969    0.0000 N   0  0  0  0  0  0  0  0  0  0  0  0
    0.6842    3.3282    0.0000 C   0  0  0  0  0  0  0  0  0  0  0  0
    2.0726    2.7604    0.0000 N   0  0  0  0  0  0  0  0  0  0  0  0
   -0.8146    3.3869    0.0000 N   0  0  0  0  0  0  0  0  0  0  0  0
   -2.2432    2.9295    0.0000 C   0  0  0  0  0  0  0  0  0  0  0  0
   -3.5932    3.6741    0.0000 C   0  0  0  0  0  0  0  0  0  0  0  0
   -5.0217    3.2166    0.0000 C   0  0  0  0  0  0  0  0  0  0  0  0
   -5.3398    1.7507    0.0000 C   0  0  0  0  0  0  0  0  0  0  0  0
   -4.2294    0.7423    0.0000 C   0  0  0  0  0  0  0  0  0  0  0  0
   -3.4291    2.0110    0.0000 C   0  0  0  0  0  0  0  0  0  0  0  0
   -4.5475   -0.7236    0.0000 C   0  0  0  0  0  0  0  0  0  0  0  0
  1  2  1  0
  2  3  1  0
  3  4  1  0
  4  5  2  0
  5  6  1  0
  6  7  1  0
  7  8  1  0
  8  9  1  0
  9 10  1  0
 10 11  2  0
 11 12  1  0
 12 13  2  0
 13 14  1  0
 13 15  1  0
 15 16  1  0
 16 17  2  0
 17 18  1  0
 18 19  2  0
 19 20  1  0
 19 21  1  0
 21 22  1  0
 22 23  1  0
 23 24  2  0
 24 25  1  0
 25 26  2  0
 26 27  1  0
 26 28  1  0
 28  2  1  0
 14  9  2  0
 20 15  2  0
 27 22  2  0
M  END
>  <BrandName>  (36) 


>  <Applicants>  (36) 
S*BIO

>  <CHEMBL_ID>  (36) 
CHEMBL1944698

>  <Canonical_Smiles>  (36) 
CN1C/C=C/CCOc2cccc(c2)-c3ccnc(n3)Nc4cccc(c4)C1

>  <Chirality>  (36) 
Achiral Molecule

>  <First_Approval>  (36) 
nan

>  <Phase>  (36) 
2.0

>  <SC_Patent>  (36) 
nan

>  <Synonyms>  (36) 
EX 45 | EX45 | SB-1317 | SB-1317 FREE BASE | SB1317 | TG-02 | TG02 | ZOTIRACICLIB

>  <Withdrawn>  (36) 
nan

>  <Indications>  (36) 
nan

>  <Type>  (36) 
nan

>  <targets_id>  (36) 
nan

>  <Inchi>  (36) 
InChI=1S/C23H24N4O/c1-27-13-3-2-4-14-28-21-10-6-8-19(16-21)22-11-12-24-23(26-22)25-20-9-5-7-18(15-20)17-27/h2-3,5-12,15-16H,4,13-14,17H2,1H3,(H,24,25,26)/b3-2+

>  <stdInchikey>  (36) 
VXBAJLGYBMTJCY-NSCUHMNNSA-N

>  <csid>  (36) 
20571045

>  <Links>  (36) 
|http://www.chemspider.com/Chemical-Structure.20571045.html|https://www.ebi.ac.uk/chembldb/compound/inspect/CHEMBL1944698|https://pubchem.ncbi.nlm.nih.gov/compound/16739650|https://go.drugbank.com/drugs/DB16656|https://www.guidetopharmacology.org/GRAC/LigandDisplayForward?9095|https://zinc15.docking.org/substances/ZINC000068251500|https://precision.fda.gov/uniisearch/srs/unii/40D08182TT|https://www.bindingdb.org/bind/chemsearch/marvin/MolStructure.jsp?monomerid=50363196

>  <LinkName>  (36) 
|ChemSpider|ChEMBL|PubChem|DrugBank|Guide to Pharmacology|ZINC|FDA SRS|BindingDB

>  <lig_pdb_ID>  (36) 


>  <pdb_IDs>  (36) 


>  <indicationDB>  (36) 


>  <uniprotId>  (36) 


>  <indicationG2P>  (36) 
None

>  <MW>  (36) 
372.2

>  <HBA>  (36) 
5

>  <HBD>  (36) 
1

>  <NRB>  (36) 
0

>  <TPSA>  (36) 
50.3

>  <LogP>  (36) 
4.7

>  <RoF>  (36) 
0

>  <Melting point>  (36) 
nan

>  <Targets>  (36) 
nan

>  <Kinase families>  (36) 


>  <FDA_approved>  (36) 


$$$$
Oditrasertib
     RDKit          2D

 21 22  0  0  0  0  0  0  0  0999 V2000
   -2.0019    0.8044    0.0000 C   0  0  0  0  0  0  0  0  0  0  0  0
   -3.2287   -0.0587    0.0000 C   0  0  0  0  0  0  0  0  0  0  0  0
   -4.4555   -0.9218    0.0000 C   0  0  0  0  0  0  0  0  0  0  0  0
   -2.3655   -1.2855    0.0000 C   0  0  0  0  0  0  0  0  0  0  0  0
   -2.9964   -2.6464    0.0000 O   0  0  0  0  0  0  0  0  0  0  0  0
   -0.8716   -1.1514    0.0000 N   0  0  0  0  0  0  0  0  0  0  0  0
   -0.1025   -2.4392    0.0000 C   0  0  0  0  0  0  0  0  0  0  0  0
    1.3839   -2.6409    0.0000 C   0  0  0  0  0  0  0  0  0  0  0  0
    2.4683   -1.6046    0.0000 O   0  0  0  0  0  0  0  0  0  0  0  0
    2.3342   -0.1106    0.0000 C   0  0  0  0  0  0  0  0  0  0  0  0
    3.6759    0.5600    0.0000 C   0  0  0  0  0  0  0  0  0  0  0  0
    4.9276   -0.2666    0.0000 C   0  0  0  0  0  0  0  0  0  0  0  0
    6.1793   -1.0933    0.0000 N   0  0  0  0  0  0  0  0  0  0  0  0
    3.7660    2.0573    0.0000 C   0  0  0  0  0  0  0  0  0  0  0  0
    2.5144    2.8840    0.0000 N   0  0  0  0  0  0  0  0  0  0  0  0
    1.1726    2.2133    0.0000 C   0  0  0  0  0  0  0  0  0  0  0  0
    1.0826    0.7160    0.0000 C   0  0  0  0  0  0  0  0  0  0  0  0
   -0.3441    0.2528    0.0000 C   0  0  0  0  0  0  0  0  0  0  0  0
   -4.0918    1.1681    0.0000 C   0  0  0  0  0  0  0  0  0  0  0  0
   -3.4609    2.5290    0.0000 F   0  0  0  0  0  0  0  0  0  0  0  0
   -5.5858    1.0340    0.0000 F   0  0  0  0  0  0  0  0  0  0  0  0
  1  2  1  0
  2  3  1  0
  2  4  1  0
  4  5  2  0
  4  6  1  0
  6  7  1  0
  7  8  1  0
  8  9  1  0
  9 10  1  0
 10 11  2  0
 11 12  1  0
 12 13  3  0
 11 14  1  0
 14 15  2  0
 15 16  1  0
 16 17  2  0
 17 18  1  0
  2 19  1  0
 19 20  1  0
 19 21  1  0
 18  6  1  0
 17 10  1  0
M  END
>  <BrandName>  (37) 


>  <Applicants>  (37) 
('Denali Therapeutics Inc',)

>  <CHEMBL_ID>  (37) 
CHEMBL5314474

>  <Canonical_Smiles>  (37) 
CC(C)(C(=O)N1CCOc2c(C#N)cncc2C1)C(F)F

>  <Chirality>  (37) 
Achiral Molecule

>  <First_Approval>  (37) 
nan

>  <Phase>  (37) 
2.0

>  <SC_Patent>  (37) 
nan

>  <Synonyms>  (37) 
ODITRASERTIB

>  <Withdrawn>  (37) 
nan

>  <Indications>  (37) 
nan

>  <Type>  (37) 
nan

>  <targets_id>  (37) 
nan

>  <Inchi>  (37) 
InChI=1S/C14H15F2N3O2/c1-14(2,12(15)16)13(20)19-3-4-21-11-9(5-17)6-18-7-10(11)8-19/h6-7,12H,3-4,8H2,1-2H3

>  <stdInchikey>  (37) 
CSCLQCHKUAMZOY-UHFFFAOYSA-N

>  <csid>  (37) 
128921467

>  <Links>  (37) 
|http://www.chemspider.com/Chemical-Structure.128921467.html|https://www.ebi.ac.uk/chembldb/compound/inspect/CHEMBL5314474|https://pubchem.ncbi.nlm.nih.gov/compound/135382587|https://precision.fda.gov/uniisearch/srs/unii/I1YQT8HC89

>  <LinkName>  (37) 
|ChemSpider|ChEMBL|PubChem|FDA SRS

>  <lig_pdb_ID>  (37) 


>  <pdb_IDs>  (37) 


>  <indicationDB>  (37) 


>  <uniprotId>  (37) 


>  <indicationG2P>  (37) 


>  <MW>  (37) 
295.1

>  <HBA>  (37) 
4

>  <HBD>  (37) 
0

>  <NRB>  (37) 
2

>  <TPSA>  (37) 
66.2

>  <LogP>  (37) 
2.0

>  <RoF>  (37) 
0

>  <Melting point>  (37) 
nan

>  <Targets>  (37) 
nan

>  <Kinase families>  (37) 


>  <FDA_approved>  (37) 


$$$$
Ilginatinib
     RDKit          2D

 29 32  0  0  0  0  0  0  0  0999 V2000
    2.7063    1.3605    0.0000 C   0  0  0  0  0  0  0  0  0  0  0  0
    3.1562   -0.0705    0.0000 C   0  0  0  0  0  0  0  0  0  0  0  0
    4.6204   -0.3964    0.0000 C   0  0  0  0  0  0  0  0  0  0  0  0
    5.0702   -1.8273    0.0000 C   0  0  0  0  0  0  0  0  0  0  0  0
    6.5344   -2.1532    0.0000 C   0  0  0  0  0  0  0  0  0  0  0  0
    7.5487   -1.0481    0.0000 C   0  0  0  0  0  0  0  0  0  0  0  0
    7.0988    0.3828    0.0000 C   0  0  0  0  0  0  0  0  0  0  0  0
    5.6347    0.7087    0.0000 C   0  0  0  0  0  0  0  0  0  0  0  0
    9.0129   -1.3740    0.0000 F   0  0  0  0  0  0  0  0  0  0  0  0
    2.1419   -1.1756    0.0000 N   0  0  0  0  0  0  0  0  0  0  0  0
    0.6777   -0.8497    0.0000 C   0  0  0  0  0  0  0  0  0  0  0  0
    0.2278    0.5812    0.0000 C   0  0  0  0  0  0  0  0  0  0  0  0
   -1.2363    0.9071    0.0000 C   0  0  0  0  0  0  0  0  0  0  0  0
   -2.2506   -0.1980    0.0000 C   0  0  0  0  0  0  0  0  0  0  0  0
   -1.8008   -1.6289    0.0000 C   0  0  0  0  0  0  0  0  0  0  0  0
   -0.3366   -1.9548    0.0000 N   0  0  0  0  0  0  0  0  0  0  0  0
   -2.8151   -2.7340    0.0000 N   0  0  0  0  0  0  0  0  0  0  0  0
   -4.2792   -2.4081    0.0000 C   0  0  0  0  0  0  0  0  0  0  0  0
   -4.7291   -0.9772    0.0000 C   0  0  0  0  0  0  0  0  0  0  0  0
   -6.1933   -0.6513    0.0000 N   0  0  0  0  0  0  0  0  0  0  0  0
   -7.2076   -1.7564    0.0000 C   0  0  0  0  0  0  0  0  0  0  0  0
   -6.7577   -3.1873    0.0000 C   0  0  0  0  0  0  0  0  0  0  0  0
   -5.2935   -3.5132    0.0000 N   0  0  0  0  0  0  0  0  0  0  0  0
   -1.6862    2.3381    0.0000 C   0  0  0  0  0  0  0  0  0  0  0  0
   -3.1083    2.8152    0.0000 C   0  0  0  0  0  0  0  0  0  0  0  0
   -3.0940    4.3151    0.0000 N   0  0  0  0  0  0  0  0  0  0  0  0
   -1.6630    4.7650    0.0000 N   0  0  0  0  0  0  0  0  0  0  0  0
   -0.7930    3.5431    0.0000 C   0  0  0  0  0  0  0  0  0  0  0  0
   -1.1859    6.1871    0.0000 C   0  0  0  0  0  0  0  0  0  0  0  0
  1  2  1  0
  2  3  1  0
  3  4  2  0
  4  5  1  0
  5  6  2  0
  6  7  1  0
  7  8  2  0
  6  9  1  0
  2 10  1  0
 10 11  1  0
 11 12  2  0
 12 13  1  0
 13 14  2  0
 14 15  1  0
 15 16  2  0
 15 17  1  0
 17 18  1  0
 18 19  2  0
 19 20  1  0
 20 21  2  0
 21 22  1  0
 22 23  2  0
 13 24  1  0
 24 25  1  0
 25 26  2  0
 26 27  1  0
 27 28  1  0
 27 29  1  0
  8  3  1  0
 16 11  1  0
 23 18  1  0
 28 24  2  0
M  END
>  <BrandName>  (38) 


>  <Applicants>  (38) 
Nippon Shinyaku

>  <CHEMBL_ID>  (38) 
CHEMBL4303389

>  <Canonical_Smiles>  (38) 
CC(c1ccc(cc1)F)Nc2cc(cc(n2)Nc3cnccn3)c4cnn(c4)C

>  <Chirality>  (38) 
Single Stereoisomer

>  <First_Approval>  (38) 
nan

>  <Phase>  (38) 
2.0

>  <SC_Patent>  (38) 
nan

>  <Synonyms>  (38) 
|NS-018

>  <Withdrawn>  (38) 
nan

>  <Indications>  (38) 
nan

>  <Type>  (38) 
nan

>  <targets_id>  (38) 
nan

>  <Inchi>  (38) 
InChI=1S/C21H20FN7/c1-14(15-3-5-18(22)6-4-15)26-19-9-16(17-11-25-29(2)13-17)10-20(27-19)28-21-12-23-7-8-24-21/h3-14H,1-2H3,(H2,24,26,27,28)/t14-/m0/s1

>  <stdInchikey>  (38) 
UQTPDWDAYHAZNT-UHFFFAOYSA-N

>  <csid>  (38) 
64880076

>  <Links>  (38) 
|http://www.chemspider.com/Chemical-Structure.64880076.html|https://pubchem.ncbi.nlm.nih.gov/compound/75236651

>  <LinkName>  (38) 
|ChemSpider|PubChem

>  <lig_pdb_ID>  (38) 


>  <pdb_IDs>  (38) 


>  <indicationDB>  (38) 


>  <uniprotId>  (38) 


>  <indicationG2P>  (38) 


>  <MW>  (38) 
389.2

>  <HBA>  (38) 
7

>  <HBD>  (38) 
2

>  <NRB>  (38) 
6

>  <TPSA>  (38) 
80.6

>  <LogP>  (38) 
4.3

>  <RoF>  (38) 
0

>  <Melting point>  (38) 
nan

>  <Targets>  (38) 
nan

>  <Kinase families>  (38) 


>  <FDA_approved>  (38) 


$$$$
Risovalisib
     RDKit          2D

 41 45  0  0  0  0  0  0  0  0999 V2000
   10.0989    3.7345    0.0000 C   0  0  0  0  0  0  0  0  0  0  0  0
    8.7009    4.2781    0.0000 O   0  0  0  0  0  0  0  0  0  0  0  0
    7.5311    3.3392    0.0000 C   0  0  0  0  0  0  0  0  0  0  0  0
    7.7593    1.8567    0.0000 O   0  0  0  0  0  0  0  0  0  0  0  0
    6.1331    3.8828    0.0000 N   0  0  0  0  0  0  0  0  0  0  0  0
    4.9633    2.9439    0.0000 C   0  0  0  0  0  0  0  0  0  0  0  0
    5.1915    1.4613    0.0000 C   0  0  0  0  0  0  0  0  0  0  0  0
    4.0217    0.5224    0.0000 C   0  0  0  0  0  0  0  0  0  0  0  0
    4.2500   -0.9601    0.0000 C   0  0  0  0  0  0  0  0  0  0  0  0
    4.4782   -2.4427    0.0000 F   0  0  0  0  0  0  0  0  0  0  0  0
    5.7325   -0.7319    0.0000 F   0  0  0  0  0  0  0  0  0  0  0  0
    2.7675   -1.1884    0.0000 F   0  0  0  0  0  0  0  0  0  0  0  0
    2.6237    1.0660    0.0000 C   0  0  0  0  0  0  0  0  0  0  0  0
    1.4539    0.1271    0.0000 C   0  0  0  0  0  0  0  0  0  0  0  0
    1.6822   -1.3555    0.0000 N   0  0  0  0  0  0  0  0  0  0  0  0
    0.5124   -2.2944    0.0000 C   0  0  0  0  0  0  0  0  0  0  0  0
    0.7406   -3.7769    0.0000 N   0  0  0  0  0  0  0  0  0  0  0  0
   -0.4292   -4.7159    0.0000 C   0  0  0  0  0  0  0  0  0  0  0  0
   -0.2009   -6.1984    0.0000 C   0  0  0  0  0  0  0  0  0  0  0  0
    1.1971   -6.7420    0.0000 O   0  0  0  0  0  0  0  0  0  0  0  0
    2.3669   -5.8031    0.0000 C   0  0  0  0  0  0  0  0  0  0  0  0
    2.1387   -4.3205    0.0000 C   0  0  0  0  0  0  0  0  0  0  0  0
   -0.8857   -1.7508    0.0000 C   0  0  0  0  0  0  0  0  0  0  0  0
   -2.2251   -2.4260    0.0000 C   0  0  0  0  0  0  0  0  0  0  0  0
   -3.2812   -1.3608    0.0000 C   0  0  0  0  0  0  0  0  0  0  0  0
   -4.7637   -1.5890    0.0000 C   0  0  0  0  0  0  0  0  0  0  0  0
   -5.7026   -0.4193    0.0000 N   0  0  0  0  0  0  0  0  0  0  0  0
   -5.1590    0.9788    0.0000 C   0  0  0  0  0  0  0  0  0  0  0  0
   -6.0980    2.1486    0.0000 C   0  0  0  0  0  0  0  0  0  0  0  0
   -7.5805    1.9203    0.0000 N   0  0  0  0  0  0  0  0  0  0  0  0
   -8.5194    3.0901    0.0000 S   0  0  0  0  0  0  0  0  0  0  0  0
   -9.4584    4.2599    0.0000 C   0  0  0  0  0  0  0  0  0  0  0  0
   -9.6892    2.1512    0.0000 O   0  0  0  0  0  0  0  0  0  0  0  0
   -7.3497    4.0290    0.0000 O   0  0  0  0  0  0  0  0  0  0  0  0
   -8.1241    0.5223    0.0000 C   0  0  0  0  0  0  0  0  0  0  0  0
   -7.1852   -0.6475    0.0000 C   0  0  0  0  0  0  0  0  0  0  0  0
   -2.5944   -0.0272    0.0000 C   0  0  0  0  0  0  0  0  0  0  0  0
   -1.1139   -0.2683    0.0000 N   0  0  0  0  0  0  0  0  0  0  0  0
    0.0559    0.6707    0.0000 N   0  0  0  0  0  0  0  0  0  0  0  0
    2.3955    2.5485    0.0000 C   0  0  0  0  0  0  0  0  0  0  0  0
    3.5652    3.4875    0.0000 N   0  0  0  0  0  0  0  0  0  0  0  0
  1  2  1  0
  2  3  1  0
  3  4  2  0
  3  5  1  0
  5  6  1  0
  6  7  2  0
  7  8  1  0
  8  9  1  0
  9 10  1  0
  9 11  1  0
  9 12  1  0
  8 13  2  0
 13 14  1  0
 14 15  1  0
 15 16  2  0
 16 17  1  0
 17 18  1  0
 18 19  1  0
 19 20  1  0
 20 21  1  0
 21 22  1  0
 16 23  1  0
 23 24  2  0
 24 25  1  0
 25 26  1  0
 26 27  1  0
 27 28  1  0
 28 29  1  0
 29 30  1  0
 30 31  1  0
 31 32  1  0
 31 33  2  0
 31 34  2  0
 30 35  1  0
 35 36  1  0
 25 37  2  0
 37 38  1  0
 38 39  1  0
 13 40  1  0
 40 41  2  0
 41  6  1  0
 39 14  2  0
 22 17  1  0
 38 23  1  0
 36 27  1  0
M  END
>  <BrandName>  (39) 


>  <Applicants>  (39) 
('',)

>  <CHEMBL_ID>  (39) 
CHEMBL4800252

>  <Canonical_Smiles>  (39) 
COC(=O)Nc1cc(C(F)(F)F)c(-c2nc(N3CCOCC3)c3cc(CN4CCN(S(C)(=O)=O)CC4)cn3n2)cn1

>  <Chirality>  (39) 
Achiral Molecule

>  <First_Approval>  (39) 
nan

>  <Phase>  (39) 
2.0

>  <SC_Patent>  (39) 
nan

>  <Synonyms>  (39) 
CYH 33 | CYH-33 | CYH33 | RISOVALISIB

>  <Withdrawn>  (39) 
nan

>  <Indications>  (39) 
nan

>  <Type>  (39) 
nan

>  <targets_id>  (39) 
nan

>  <Inchi>  (39) 
InChI=1S/C24H29F3N8O5S/c1-39-23(36)29-20-12-18(24(25,26)27)17(13-28-20)21-30-22(33-7-9-40-10-8-33)19-11-16(15-35(19)31-21)14-32-3-5-34(6-4-32)41(2,37)38/h11-13,15H,3-10,14H2,1-2H3,(H,28,29,36)

>  <stdInchikey>  (39) 
KTLQDDGRBDLKMN-UHFFFAOYSA-N

>  <csid>  (39) 
88296102

>  <Links>  (39) 
|http://www.chemspider.com/Chemical-Structure.88296102.html|https://www.ebi.ac.uk/chembldb/compound/inspect/CHEMBL4800252|https://pubchem.ncbi.nlm.nih.gov/compound/72550012|https://precision.fda.gov/uniisearch/srs/unii/RCA38L4HB5|https://www.bindingdb.org/bind/chemsearch/marvin/MolStructure.jsp?monomerid=330295

>  <LinkName>  (39) 
|ChemSpider|ChEMBL|PubChem|FDA SRS|BindingDB

>  <lig_pdb_ID>  (39) 


>  <pdb_IDs>  (39) 


>  <indicationDB>  (39) 


>  <uniprotId>  (39) 


>  <indicationG2P>  (39) 


>  <MW>  (39) 
598.2

>  <HBA>  (39) 
11

>  <HBD>  (39) 
1

>  <NRB>  (39) 
6

>  <TPSA>  (39) 
134.5

>  <LogP>  (39) 
1.9

>  <RoF>  (39) 
2

>  <Melting point>  (39) 
nan

>  <Targets>  (39) 
nan

>  <Kinase families>  (39) 


>  <FDA_approved>  (39) 


$$$$
Edralbrutinib
     RDKit          2D

 36 40  0  0  0  0  0  0  0  0999 V2000
    9.6622   -1.4038    0.0000 C   0  0  0  0  0  0  0  0  0  0  0  0
    8.8248   -0.1593    0.0000 C   0  0  0  0  0  0  0  0  0  0  0  0
    7.9874    1.0852    0.0000 C   0  0  0  0  0  0  0  0  0  0  0  0
    7.1500    2.3297    0.0000 C   0  0  0  0  0  0  0  0  0  0  0  0
    7.8091    3.6772    0.0000 O   0  0  0  0  0  0  0  0  0  0  0  0
    5.6536    2.2268    0.0000 N   0  0  0  0  0  0  0  0  0  0  0  0
    4.6907    3.3769    0.0000 C   0  0  0  0  0  0  0  0  0  0  0  0
    3.2993    2.8166    0.0000 C   0  0  0  0  0  0  0  0  0  0  0  0
    3.4022    1.3201    0.0000 C   0  0  0  0  0  0  0  0  0  0  0  0
    2.2521    0.3572    0.0000 N   0  0  0  0  0  0  0  0  0  0  0  0
    0.7970    0.7218    0.0000 C   0  0  0  0  0  0  0  0  0  0  0  0
    0.0007   -0.5494    0.0000 C   0  0  0  0  0  0  0  0  0  0  0  0
   -1.4957   -0.6524    0.0000 C   0  0  0  0  0  0  0  0  0  0  0  0
   -2.3331    0.5921    0.0000 C   0  0  0  0  0  0  0  0  0  0  0  0
   -3.8296    0.4892    0.0000 C   0  0  0  0  0  0  0  0  0  0  0  0
   -4.4887   -0.8582    0.0000 C   0  0  0  0  0  0  0  0  0  0  0  0
   -5.9851   -0.9612    0.0000 O   0  0  0  0  0  0  0  0  0  0  0  0
   -6.8225    0.2833    0.0000 C   0  0  0  0  0  0  0  0  0  0  0  0
   -6.1634    1.6308    0.0000 C   0  0  0  0  0  0  0  0  0  0  0  0
   -4.6670    1.7337    0.0000 F   0  0  0  0  0  0  0  0  0  0  0  0
   -7.0008    2.8753    0.0000 C   0  0  0  0  0  0  0  0  0  0  0  0
   -8.4973    2.7723    0.0000 C   0  0  0  0  0  0  0  0  0  0  0  0
   -9.1564    1.4249    0.0000 C   0  0  0  0  0  0  0  0  0  0  0  0
   -8.3190    0.1804    0.0000 C   0  0  0  0  0  0  0  0  0  0  0  0
   -8.9781   -1.1671    0.0000 F   0  0  0  0  0  0  0  0  0  0  0  0
   -3.6513   -2.1027    0.0000 C   0  0  0  0  0  0  0  0  0  0  0  0
   -2.1548   -1.9998    0.0000 C   0  0  0  0  0  0  0  0  0  0  0  0
    0.9636   -1.6996    0.0000 C   0  0  0  0  0  0  0  0  0  0  0  0
    0.7532   -3.1847    0.0000 C   0  0  0  0  0  0  0  0  0  0  0  0
   -0.6382   -3.7451    0.0000 N   0  0  0  0  0  0  0  0  0  0  0  0
    1.9341   -4.1096    0.0000 N   0  0  0  0  0  0  0  0  0  0  0  0
    3.3255   -3.5492    0.0000 N   0  0  0  0  0  0  0  0  0  0  0  0
    3.5360   -2.0641    0.0000 C   0  0  0  0  0  0  0  0  0  0  0  0
    4.9274   -1.5037    0.0000 O   0  0  0  0  0  0  0  0  0  0  0  0
    2.3550   -1.1392    0.0000 C   0  0  0  0  0  0  0  0  0  0  0  0
    4.8573    0.9556    0.0000 C   0  0  0  0  0  0  0  0  0  0  0  0
  1  2  1  0
  2  3  3  0
  3  4  1  0
  4  5  2  0
  4  6  1  0
  6  7  1  0
  7  8  1  0
  8  9  1  0
  9 10  1  6
 10 11  1  0
 11 12  2  0
 12 13  1  0
 13 14  2  0
 14 15  1  0
 15 16  2  0
 16 17  1  0
 17 18  1  0
 18 19  2  0
 19 20  1  0
 19 21  1  0
 21 22  2  0
 22 23  1  0
 23 24  2  0
 24 25  1  0
 16 26  1  0
 26 27  2  0
 12 28  1  0
 28 29  1  0
 29 30  1  0
 29 31  2  0
 31 32  1  0
 32 33  1  0
 33 34  2  0
 33 35  1  0
  9 36  1  0
 36  6  1  0
 35 10  1  0
 27 13  1  0
 35 28  2  0
 24 18  1  0
M  END
>  <BrandName>  (40) 


>  <Applicants>  (40) 
Eternity Bioscience

>  <CHEMBL_ID>  (40) 
CHEMBL4650338

>  <Canonical_Smiles>  (40) 
CC#CC(=O)N1CC[C@@H](n2cc(-c3ccc(Oc4c(F)cccc4F)cc3)c3c(N)n[nH]c(=O)c32)C1

>  <Chirality>  (40) 
Single Stereoisomer

>  <First_Approval>  (40) 
nan

>  <Phase>  (40) 
2.0

>  <SC_Patent>  (40) 
nan

>  <Synonyms>  (40) 
EDRALBRUTINIB | SHR-1459 | SHR1459 | TG 1701 | TG-1701 | TG1701

>  <Withdrawn>  (40) 
nan

>  <Indications>  (40) 
nan

>  <Type>  (40) 
nan

>  <targets_id>  (40) 
nan

>  <Inchi>  (40) 
InChI=1S/C26H21F2N5O3/c1-2-4-21(34)32-12-11-16(13-32)33-14-18(22-23(33)26(35)31-30-25(22)29)15-7-9-17(10-8-15)36-24-19(27)5-3-6-20(24)28/h3,5-10,14,16H,11-13H2,1H3,(H2,29,30)(H,31,35)/t16-/m1/s1

>  <stdInchikey>  (40) 
DNPOFZXZJJDQLB-MRXNPFEDSA-N

>  <csid>  (40) 
94287367

>  <Links>  (40) 
|http://www.chemspider.com/Chemical-Structure.94287367.html|https://www.ebi.ac.uk/chembldb/compound/inspect/CHEMBL4650338|https://pubchem.ncbi.nlm.nih.gov/compound/118649391|https://go.drugbank.com/drugs/DB18095|https://precision.fda.gov/uniisearch/srs/unii/SG5I5QTR4E|https://www.bindingdb.org/bind/chemsearch/marvin/MolStructure.jsp?monomerid=390081

>  <LinkName>  (40) 
|ChemSpider|ChEMBL|PubChem|DrugBank|FDA SRS|BindingDB

>  <lig_pdb_ID>  (40) 


>  <pdb_IDs>  (40) 


>  <indicationDB>  (40) 


>  <uniprotId>  (40) 


>  <indicationG2P>  (40) 


>  <MW>  (40) 
489.2

>  <HBA>  (40) 
6

>  <HBD>  (40) 
2

>  <NRB>  (40) 
4

>  <TPSA>  (40) 
106.2

>  <LogP>  (40) 
3.8

>  <RoF>  (40) 
0

>  <Melting point>  (40) 
nan

>  <Targets>  (40) 
nan

>  <Kinase families>  (40) 


>  <FDA_approved>  (40) 


$$$$
Tagtociclib
     RDKit          2D

 29 31  0  0  0  0  0  0  0  0999 V2000
  -10.9710   -1.6957    0.0000 C   0  0  0  0  0  0  0  0  0  0  0  0
   -9.7677   -0.8000    0.0000 O   0  0  0  0  0  0  0  0  0  0  0  0
   -8.3904   -1.3942    0.0000 C   0  0  0  0  0  0  0  0  0  0  0  0
   -7.1872   -0.4985    0.0000 C   0  0  0  0  0  0  0  0  0  0  0  0
   -5.7554   -0.9455    0.0000 C   0  0  0  0  0  0  0  0  0  0  0  0
   -4.8878    0.2782    0.0000 C   0  0  0  0  0  0  0  0  0  0  0  0
   -3.3879    0.2956    0.0000 C   0  0  0  0  0  0  0  0  0  0  0  0
   -2.6530    1.6032    0.0000 O   0  0  0  0  0  0  0  0  0  0  0  0
   -2.6229   -0.9947    0.0000 N   0  0  0  0  0  0  0  0  0  0  0  0
   -1.1230   -0.9773    0.0000 C   0  0  0  0  0  0  0  0  0  0  0  0
   -0.2554    0.2463    0.0000 C   0  0  0  0  0  0  0  0  0  0  0  0
    1.1764   -0.2006    0.0000 C   0  0  0  0  0  0  0  0  0  0  0  0
    2.3796    0.6951    0.0000 C   0  0  0  0  0  0  0  0  0  0  0  0
    2.3623    2.1950    0.0000 C   0  0  0  0  0  0  0  0  0  0  0  0
    3.7834    2.6750    0.0000 C   0  0  0  0  0  0  0  0  0  0  0  0
    4.6791    1.4718    0.0000 C   0  0  0  0  0  0  0  0  0  0  0  0
    6.1790    1.4892    0.0000 O   0  0  0  0  0  0  0  0  0  0  0  0
    6.9440    0.1989    0.0000 C   0  0  0  0  0  0  0  0  0  0  0  0
    6.2091   -1.1087    0.0000 O   0  0  0  0  0  0  0  0  0  0  0  0
    8.4439    0.2163    0.0000 N   0  0  0  0  0  0  0  0  0  0  0  0
    9.2089   -1.0740    0.0000 C   0  0  0  0  0  0  0  0  0  0  0  0
   10.7088   -1.0566    0.0000 C   0  0  0  0  0  0  0  0  0  0  0  0
    8.4740   -2.3816    0.0000 C   0  0  0  0  0  0  0  0  0  0  0  0
    3.8115    0.2481    0.0000 C   0  0  0  0  0  0  0  0  0  0  0  0
    1.1938   -1.7005    0.0000 N   0  0  0  0  0  0  0  0  0  0  0  0
   -0.2273   -2.1805    0.0000 N   0  0  0  0  0  0  0  0  0  0  0  0
   -5.7835    1.4814    0.0000 N   0  0  0  0  0  0  0  0  0  0  0  0
   -5.3365    2.9133    0.0000 C   0  0  0  0  0  0  0  0  0  0  0  0
   -7.2046    1.0014    0.0000 N   0  0  0  0  0  0  0  0  0  0  0  0
  1  2  1  0
  2  3  1  0
  3  4  1  0
  4  5  1  0
  5  6  2  0
  6  7  1  0
  7  8  2  0
  7  9  1  0
  9 10  1  0
 10 11  1  0
 11 12  2  0
 13 12  1  1
 13 14  1  0
 14 15  1  0
 15 16  1  0
 16 17  1  1
 17 18  1  0
 18 19  2  0
 18 20  1  0
 20 21  1  0
 21 22  1  0
 21 23  1  0
 16 24  1  0
 12 25  1  0
 25 26  1  0
  6 27  1  0
 27 28  1  0
 27 29  1  0
 29  4  2  0
 26 10  2  0
 24 13  1  0
M  END
>  <BrandName>  (41) 


>  <Applicants>  (41) 
('',)

>  <CHEMBL_ID>  (41) 
CHEMBL5201870

>  <Canonical_Smiles>  (41) 
COCc1cc(C(=O)Nc2cc([C@H]3CC[C@@H](OC(=O)NC(C)C)C3)[nH]n2)n(C)n1

>  <Chirality>  (41) 
Unknown

>  <First_Approval>  (41) 
nan

>  <Phase>  (41) 
2.0

>  <SC_Patent>  (41) 
nan

>  <Synonyms>  (41) 
PF-07104091 | TAGTOCICLIB

>  <Withdrawn>  (41) 
nan

>  <Indications>  (41) 
nan

>  <Type>  (41) 
nan

>  <targets_id>  (41) 
nan

>  <Inchi>  (41) 
InChI=1S/C19H28N6O4/c1-11(2)20-19(27)29-14-6-5-12(7-14)15-9-17(23-22-15)21-18(26)16-8-13(10-28-4)24-25(16)3/h8-9,11-12,14H,5-7,10H2,1-4H3,(H,20,27)(H2,21,22,23,26)/t12-,14+/m0/s1

>  <stdInchikey>  (41) 
MTNBRBDFNSGQKB-GXTWGEPZSA-N

>  <csid>  (41) 
114711411

>  <Links>  (41) 
|http://www.chemspider.com/Chemical-Structure.114711411.html|https://www.ebi.ac.uk/chembldb/compound/inspect/CHEMBL5201870|https://pubchem.ncbi.nlm.nih.gov/compound/154616422

>  <LinkName>  (41) 
|ChemSpider|ChEMBL|PubChem

>  <lig_pdb_ID>  (41) 


>  <pdb_IDs>  (41) 


>  <indicationDB>  (41) 


>  <uniprotId>  (41) 


>  <indicationG2P>  (41) 


>  <MW>  (41) 
404.2

>  <HBA>  (41) 
7

>  <HBD>  (41) 
3

>  <NRB>  (41) 
7

>  <TPSA>  (41) 
123.2

>  <LogP>  (41) 
2.3

>  <RoF>  (41) 
0

>  <Melting point>  (41) 
nan

>  <Targets>  (41) 
nan

>  <Kinase families>  (41) 


>  <FDA_approved>  (41) 


$$$$
Zimlovisertib
     RDKit          2D

 26 28  0  0  0  0  0  0  0  0999 V2000
   -6.8272   -1.9977    0.0000 C   0  0  0  0  0  0  0  0  0  0  0  0
   -5.3452   -1.7661    0.0000 C   0  0  0  0  0  0  0  0  0  0  0  0
   -4.8048   -0.3668    0.0000 C   0  0  0  0  0  0  0  0  0  0  0  0
   -3.3551    0.0185    0.0000 C   0  0  0  0  0  0  0  0  0  0  0  0
   -2.1913   -0.9278    0.0000 C   0  0  0  0  0  0  0  0  0  0  0  0
   -0.7899   -0.3930    0.0000 O   0  0  0  0  0  0  0  0  0  0  0  0
    0.3740   -1.3394    0.0000 C   0  0  0  0  0  0  0  0  0  0  0  0
    0.1363   -2.8204    0.0000 N   0  0  0  0  0  0  0  0  0  0  0  0
    1.3002   -3.7667    0.0000 C   0  0  0  0  0  0  0  0  0  0  0  0
    2.7016   -3.2320    0.0000 C   0  0  0  0  0  0  0  0  0  0  0  0
    2.9392   -1.7510    0.0000 C   0  0  0  0  0  0  0  0  0  0  0  0
    4.3407   -1.2162    0.0000 C   0  0  0  0  0  0  0  0  0  0  0  0
    4.5783    0.2648    0.0000 C   0  0  0  0  0  0  0  0  0  0  0  0
    5.9798    0.7996    0.0000 C   0  0  0  0  0  0  0  0  0  0  0  0
    7.1436   -0.1467    0.0000 N   0  0  0  0  0  0  0  0  0  0  0  0
    6.2174    2.2806    0.0000 O   0  0  0  0  0  0  0  0  0  0  0  0
    3.4145    1.2112    0.0000 C   0  0  0  0  0  0  0  0  0  0  0  0
    3.6521    2.6922    0.0000 O   0  0  0  0  0  0  0  0  0  0  0  0
    2.4883    3.6385    0.0000 C   0  0  0  0  0  0  0  0  0  0  0  0
    2.0130    0.6764    0.0000 C   0  0  0  0  0  0  0  0  0  0  0  0
    1.7754   -0.8046    0.0000 C   0  0  0  0  0  0  0  0  0  0  0  0
   -3.2736    1.5163    0.0000 N   0  0  0  0  0  0  0  0  0  0  0  0
   -4.6729    2.0567    0.0000 C   0  0  0  0  0  0  0  0  0  0  0  0
   -5.0582    3.5063    0.0000 O   0  0  0  0  0  0  0  0  0  0  0  0
   -5.6192    0.8929    0.0000 C   0  0  0  0  0  0  0  0  0  0  0  0
   -7.1170    0.9744    0.0000 F   0  0  0  0  0  0  0  0  0  0  0  0
  1  2  1  0
  3  2  1  6
  3  4  1  0
  4  5  1  6
  5  6  1  0
  6  7  1  0
  7  8  2  0
  8  9  1  0
  9 10  2  0
 10 11  1  0
 11 12  2  0
 12 13  1  0
 13 14  1  0
 14 15  1  0
 14 16  2  0
 13 17  2  0
 17 18  1  0
 18 19  1  0
 17 20  1  0
 20 21  2  0
  4 22  1  0
 22 23  1  0
 23 24  2  0
 23 25  1  0
 25 26  1  6
 25  3  1  0
 21  7  1  0
 21 11  1  0
M  END
>  <BrandName>  (42) 


>  <Applicants>  (42) 
Pfizer

>  <CHEMBL_ID>  (42) 
CHEMBL4081711

>  <Canonical_Smiles>  (42) 
CC[C@H]1[C@@H](COc2nccc3cc(C(N)=O)c(OC)cc23)NC(=O)[C@H]1F

>  <Chirality>  (42) 
Single Stereoisomer

>  <First_Approval>  (42) 
nan

>  <Phase>  (42) 
2.0

>  <SC_Patent>  (42) 
nan

>  <Synonyms>  (42) 
PF 06650833 | PF-06650833 | ZIMLOVISERTIB

>  <Withdrawn>  (42) 
nan

>  <Indications>  (42) 
nan

>  <Type>  (42) 
nan

>  <targets_id>  (42) 
nan

>  <Inchi>  (42) 
InChI=1S/C18H20FN3O4/c1-3-10-13(22-17(24)15(10)19)8-26-18-11-7-14(25-2)12(16(20)23)6-9(11)4-5-21-18/h4-7,10,13,15H,3,8H2,1-2H3,(H2,20,23)(H,22,24)/t10-,13+,15-/m0/s1

>  <stdInchikey>  (42) 
JKDGKIBAOAFRPJ-ZBINZKHDSA-N

>  <csid>  (42) 
58805665

>  <Links>  (42) 
|http://www.chemspider.com/Chemical-Structure.58805665.html|https://www.ebi.ac.uk/chembldb/compound/inspect/CHEMBL4081711|https://pubchem.ncbi.nlm.nih.gov/compound/118414016|https://go.drugbank.com/drugs/DB15143|https://www.rcsb.org/ligand/8CG|https://www.ebi.ac.uk/pdbe-srv/pdbechem/chemicalCompound/show/8CG|https://www.guidetopharmacology.org/GRAC/LigandDisplayForward?9667|https://zinc15.docking.org/substances/ZINC000526061587|https://precision.fda.gov/uniisearch/srs/unii/S3F315JJXI|https://www.bindingdb.org/bind/chemsearch/marvin/MolStructure.jsp?monomerid=50239499

>  <LinkName>  (42) 
|ChemSpider|ChEMBL|PubChem|DrugBank|RCSB|PDBe|Guide to Pharmacology|ZINC|FDA SRS|BindingDB

>  <lig_pdb_ID>  (42) 
8CG

>  <pdb_IDs>  (42) 
5uiu 8wtf

>  <indicationDB>  (42) 


>  <uniprotId>  (42) 


>  <indicationG2P>  (42) 
None

>  <MW>  (42) 
361.1

>  <HBA>  (42) 
5

>  <HBD>  (42) 
2

>  <NRB>  (42) 
6

>  <TPSA>  (42) 
103.5

>  <LogP>  (42) 
1.6

>  <RoF>  (42) 
0

>  <Melting point>  (42) 
nan

>  <Targets>  (42) 
nan

>  <Kinase families>  (42) 


>  <FDA_approved>  (42) 


$$$$
Tinlorafenib
     RDKit          2D

 30 32  0  0  0  0  0  0  0  0999 V2000
    3.6126   -2.4014    0.0000 C   0  0  0  0  0  0  0  0  0  0  0  0
    3.4517   -0.9101    0.0000 C   0  0  0  0  0  0  0  0  0  0  0  0
    2.0797   -0.3037    0.0000 C   0  0  0  0  0  0  0  0  0  0  0  0
    0.8686   -1.1887    0.0000 N   0  0  0  0  0  0  0  0  0  0  0  0
   -0.5034   -0.5823    0.0000 C   0  0  0  0  0  0  0  0  0  0  0  0
   -0.6642    0.9090    0.0000 C   0  0  0  0  0  0  0  0  0  0  0  0
    0.5469    1.7940    0.0000 F   0  0  0  0  0  0  0  0  0  0  0  0
   -2.0362    1.5154    0.0000 C   0  0  0  0  0  0  0  0  0  0  0  0
   -3.2473    0.6304    0.0000 C   0  0  0  0  0  0  0  0  0  0  0  0
   -3.0865   -0.8610    0.0000 C   0  0  0  0  0  0  0  0  0  0  0  0
   -4.2976   -1.7459    0.0000 N   0  0  0  0  0  0  0  0  0  0  0  0
   -5.6696   -1.1396    0.0000 S   0  0  0  0  0  0  0  0  0  0  0  0
   -5.0632    0.2324    0.0000 O   0  0  0  0  0  0  0  0  0  0  0  0
   -6.2759   -2.5116    0.0000 O   0  0  0  0  0  0  0  0  0  0  0  0
   -7.0415   -0.5332    0.0000 C   0  0  0  0  0  0  0  0  0  0  0  0
   -7.2024    0.9581    0.0000 C   0  0  0  0  0  0  0  0  0  0  0  0
   -8.5744    1.5645    0.0000 C   0  0  0  0  0  0  0  0  0  0  0  0
   -8.7352    3.0559    0.0000 F   0  0  0  0  0  0  0  0  0  0  0  0
   -1.7145   -1.4673    0.0000 C   0  0  0  0  0  0  0  0  0  0  0  0
   -1.5536   -2.9587    0.0000 Cl  0  0  0  0  0  0  0  0  0  0  0  0
    1.9189    1.1876    0.0000 C   0  0  0  0  0  0  0  0  0  0  0  0
    3.1300    2.0726    0.0000 C   0  0  0  0  0  0  0  0  0  0  0  0
    4.5020    1.4662    0.0000 C   0  0  0  0  0  0  0  0  0  0  0  0
    5.7131    2.3512    0.0000 N   0  0  0  0  0  0  0  0  0  0  0  0
    7.0851    1.7449    0.0000 C   0  0  0  0  0  0  0  0  0  0  0  0
    7.2459    0.2535    0.0000 N   0  0  0  0  0  0  0  0  0  0  0  0
    8.6179   -0.3529    0.0000 C   0  0  0  0  0  0  0  0  0  0  0  0
    6.0348   -0.6315    0.0000 C   0  0  0  0  0  0  0  0  0  0  0  0
    6.1957   -2.1228    0.0000 O   0  0  0  0  0  0  0  0  0  0  0  0
    4.6628   -0.0251    0.0000 C   0  0  0  0  0  0  0  0  0  0  0  0
  1  2  1  0
  2  3  2  0
  3  4  1  0
  4  5  1  0
  5  6  2  0
  6  7  1  0
  6  8  1  0
  8  9  2  0
  9 10  1  0
 10 11  1  0
 11 12  1  0
 12 13  2  0
 12 14  2  0
 12 15  1  0
 15 16  1  0
 16 17  1  0
 17 18  1  0
 10 19  2  0
 19 20  1  0
  3 21  1  0
 21 22  2  0
 22 23  1  0
 23 24  1  0
 24 25  2  0
 25 26  1  0
 26 27  1  0
 26 28  1  0
 28 29  2  0
 28 30  1  0
 30  2  1  0
 19  5  1  0
 30 23  2  0
M  END
>  <BrandName>  (43) 


>  <Applicants>  (43) 
Pfizer

>  <CHEMBL_ID>  (43) 
CHEMBL5095256

>  <Canonical_Smiles>  (43) 
Cc1c(Nc2c(F)ccc(NS(=O)(=O)CCCF)c2Cl)ccc2ncn(C)c(=O)c12

>  <Chirality>  (43) 
Achiral Molecule

>  <First_Approval>  (43) 
nan

>  <Phase>  (43) 
2.0

>  <SC_Patent>  (43) 
nan

>  <Synonyms>  (43) 
AR00504461 | ARRY-461 | PF-07284890 | TINLORAFENIB

>  <Withdrawn>  (43) 
nan

>  <Indications>  (43) 
nan

>  <Type>  (43) 
nan

>  <targets_id>  (43) 
nan

>  <Inchi>  (43) 
InChI=1S/C19H19ClF2N4O3S/c1-11-13(6-7-14-16(11)19(27)26(2)10-23-14)24-18-12(22)4-5-15(17(18)20)25-30(28,29)9-3-8-21/h4-7,10,24-25H,3,8-9H2,1-2H3

>  <stdInchikey>  (43) 
VVLVISDSGRHLMB-UHFFFAOYSA-N

>  <csid>  (43) 


>  <Links>  (43) 
|http://www.chemspider.com/Chemical-Structure..html|https://www.ebi.ac.uk/chembldb/compound/inspect/CHEMBL5095256|https://pubchem.ncbi.nlm.nih.gov/compound/155434855

>  <LinkName>  (43) 
|ChemSpider|ChEMBL|PubChem

>  <lig_pdb_ID>  (43) 


>  <pdb_IDs>  (43) 


>  <indicationDB>  (43) 


>  <uniprotId>  (43) 


>  <indicationG2P>  (43) 


>  <MW>  (43) 
456.1

>  <HBA>  (43) 
6

>  <HBD>  (43) 
2

>  <NRB>  (43) 
7

>  <TPSA>  (43) 
93.1

>  <LogP>  (43) 
3.9

>  <RoF>  (43) 
0

>  <Melting point>  (43) 
nan

>  <Targets>  (43) 
nan

>  <Kinase families>  (43) 


>  <FDA_approved>  (43) 


$$$$
Ansornitinib
     RDKit          2D

 40 44  0  0  0  0  0  0  0  0999 V2000
    9.1524   -4.6530    0.0000 C   0  0  0  0  0  0  0  0  0  0  0  0
    7.9629   -3.7392    0.0000 O   0  0  0  0  0  0  0  0  0  0  0  0
    8.1596   -2.2521    0.0000 C   0  0  0  0  0  0  0  0  0  0  0  0
    9.5457   -1.6789    0.0000 O   0  0  0  0  0  0  0  0  0  0  0  0
    6.9701   -1.3383    0.0000 C   0  0  0  0  0  0  0  0  0  0  0  0
    5.5839   -1.9115    0.0000 C   0  0  0  0  0  0  0  0  0  0  0  0
    4.3944   -0.9977    0.0000 C   0  0  0  0  0  0  0  0  0  0  0  0
    4.5911    0.4894    0.0000 C   0  0  0  0  0  0  0  0  0  0  0  0
    5.9772    1.0626    0.0000 C   0  0  0  0  0  0  0  0  0  0  0  0
    7.1667    0.1488    0.0000 N   0  0  0  0  0  0  0  0  0  0  0  0
    5.8604    2.5581    0.0000 N   0  0  0  0  0  0  0  0  0  0  0  0
    4.4020    2.9091    0.0000 C   0  0  0  0  0  0  0  0  0  0  0  0
    3.8288    4.2952    0.0000 O   0  0  0  0  0  0  0  0  0  0  0  0
    3.6176    1.6306    0.0000 C   0  0  0  0  0  0  0  0  0  0  0  0
    2.1221    1.5137    0.0000 C   0  0  0  0  0  0  0  0  0  0  0  0
    1.2732    2.7504    0.0000 N   0  0  0  0  0  0  0  0  0  0  0  0
   -0.2222    2.6336    0.0000 C   0  0  0  0  0  0  0  0  0  0  0  0
   -1.0711    3.8703    0.0000 C   0  0  0  0  0  0  0  0  0  0  0  0
   -2.5666    3.7534    0.0000 C   0  0  0  0  0  0  0  0  0  0  0  0
   -3.2131    2.3999    0.0000 C   0  0  0  0  0  0  0  0  0  0  0  0
   -4.7086    2.2831    0.0000 N   0  0  0  0  0  0  0  0  0  0  0  0
   -5.5574    3.5198    0.0000 C   0  0  0  0  0  0  0  0  0  0  0  0
   -5.3551    0.9296    0.0000 C   0  0  0  0  0  0  0  0  0  0  0  0
   -4.5062   -0.3071    0.0000 O   0  0  0  0  0  0  0  0  0  0  0  0
   -6.8505    0.8128    0.0000 C   0  0  0  0  0  0  0  0  0  0  0  0
   -7.4971   -0.5407    0.0000 N   0  0  0  0  0  0  0  0  0  0  0  0
   -8.9925   -0.6575    0.0000 C   0  0  0  0  0  0  0  0  0  0  0  0
   -9.6391   -2.0110    0.0000 C   0  0  0  0  0  0  0  0  0  0  0  0
   -8.7902   -3.2477    0.0000 N   0  0  0  0  0  0  0  0  0  0  0  0
   -9.4367   -4.6012    0.0000 C   0  0  0  0  0  0  0  0  0  0  0  0
   -7.2947   -3.1309    0.0000 C   0  0  0  0  0  0  0  0  0  0  0  0
   -6.6482   -1.7774    0.0000 C   0  0  0  0  0  0  0  0  0  0  0  0
   -2.3642    1.1633    0.0000 C   0  0  0  0  0  0  0  0  0  0  0  0
   -0.8688    1.2801    0.0000 C   0  0  0  0  0  0  0  0  0  0  0  0
    1.4756    0.1602    0.0000 C   0  0  0  0  0  0  0  0  0  0  0  0
   -0.0199    0.0434    0.0000 C   0  0  0  0  0  0  0  0  0  0  0  0
   -0.6664   -1.3101    0.0000 C   0  0  0  0  0  0  0  0  0  0  0  0
    0.1825   -2.5468    0.0000 C   0  0  0  0  0  0  0  0  0  0  0  0
    1.6779   -2.4300    0.0000 C   0  0  0  0  0  0  0  0  0  0  0  0
    2.3245   -1.0764    0.0000 C   0  0  0  0  0  0  0  0  0  0  0  0
  1  2  1  0
  2  3  1  0
  3  4  2  0
  3  5  1  0
  5  6  2  0
  6  7  1  0
  7  8  2  0
  8  9  1  0
  9 10  2  0
  9 11  1  0
 11 12  1  0
 12 13  2  0
 12 14  1  0
 14 15  2  0
 15 16  1  0
 16 17  1  0
 17 18  2  0
 18 19  1  0
 19 20  2  0
 20 21  1  0
 21 22  1  0
 21 23  1  0
 23 24  2  0
 23 25  1  0
 25 26  1  0
 26 27  1  0
 27 28  1  0
 28 29  1  0
 29 30  1  0
 29 31  1  0
 31 32  1  0
 20 33  1  0
 33 34  2  0
 15 35  1  0
 35 36  2  0
 36 37  1  0
 37 38  2  0
 38 39  1  0
 39 40  2  0
 10  5  1  0
 34 17  1  0
 40 35  1  0
 14  8  1  0
 32 26  1  0
M  END
>  <BrandName>  (44) 


>  <Applicants>  (44) 
Angion Biomedica

>  <CHEMBL_ID>  (44) 
CHEMBL5095090

>  <Canonical_Smiles>  (44) 
COC(=O)c1ccc2c(n1)NC(=O)/C2=C(\Nc1ccc(N(C)C(=O)CN2CCN(C)CC2)cc1)c1ccccc1

>  <Chirality>  (44) 
Achiral Molecule

>  <First_Approval>  (44) 
nan

>  <Phase>  (44) 
2.0

>  <SC_Patent>  (44) 
nan

>  <Synonyms>  (44) 
ANSORNITINIB | ANSORNITINIB 

>  <Withdrawn>  (44) 
nan

>  <Indications>  (44) 
nan

>  <Type>  (44) 
nan

>  <targets_id>  (44) 
nan

>  <Inchi>  (44) 
InChI=1S/C30H32N6O4/c1-34-15-17-36(18-16-34)19-25(37)35(2)22-11-9-21(10-12-22)31-27(20-7-5-4-6-8-20)26-23-13-14-24(30(39)40-3)32-28(23)33-29(26)38/h4-14,31H,15-19H2,1-3H3,(H,32,33,38)/b27-26-

>  <stdInchikey>  (44) 
OABALTWKAJWHEA-RQZHXJHFSA-N

>  <csid>  (44) 


>  <Links>  (44) 
|http://www.chemspider.com/Chemical-Structure..html|https://www.ebi.ac.uk/chembldb/compound/inspect/CHEMBL5095090

>  <LinkName>  (44) 
|ChemSpider|ChEMBL

>  <lig_pdb_ID>  (44) 


>  <pdb_IDs>  (44) 


>  <indicationDB>  (44) 


>  <uniprotId>  (44) 


>  <indicationG2P>  (44) 


>  <MW>  (44) 
540.2

>  <HBA>  (44) 
8

>  <HBD>  (44) 
2

>  <NRB>  (44) 
7

>  <TPSA>  (44) 
107.1

>  <LogP>  (44) 
3.0

>  <RoF>  (44) 
1

>  <Melting point>  (44) 
nan

>  <Targets>  (44) 
nan

>  <Kinase families>  (44) 


>  <FDA_approved>  (44) 


$$$$
Apitolisib
     RDKit          2D

 35 39  0  0  0  0  0  0  0  0999 V2000
    1.0836   -4.2403    0.0000 C   0  0  0  0  0  0  0  0  0  0  0  0
    0.7309   -2.7824    0.0000 C   0  0  0  0  0  0  0  0  0  0  0  0
   -0.6559   -2.2108    0.0000 C   0  0  0  0  0  0  0  0  0  0  0  0
   -0.5408   -0.7152    0.0000 S   0  0  0  0  0  0  0  0  0  0  0  0
    0.9171   -0.3625    0.0000 C   0  0  0  0  0  0  0  0  0  0  0  0
    1.7031   -1.6401    0.0000 C   0  0  0  0  0  0  0  0  0  0  0  0
    3.2025   -1.5982    0.0000 N   0  0  0  0  0  0  0  0  0  0  0  0
    3.9159   -0.2787    0.0000 C   0  0  0  0  0  0  0  0  0  0  0  0
    3.1299    0.9989    0.0000 N   0  0  0  0  0  0  0  0  0  0  0  0
    1.6305    0.9570    0.0000 C   0  0  0  0  0  0  0  0  0  0  0  0
    0.8446    2.2346    0.0000 N   0  0  0  0  0  0  0  0  0  0  0  0
    1.5580    3.5540    0.0000 C   0  0  0  0  0  0  0  0  0  0  0  0
    0.7720    4.8316    0.0000 C   0  0  0  0  0  0  0  0  0  0  0  0
   -0.7274    4.7897    0.0000 O   0  0  0  0  0  0  0  0  0  0  0  0
   -1.4408    3.4703    0.0000 C   0  0  0  0  0  0  0  0  0  0  0  0
   -0.6549    2.1927    0.0000 C   0  0  0  0  0  0  0  0  0  0  0  0
    5.4153   -0.2368    0.0000 C   0  0  0  0  0  0  0  0  0  0  0  0
    6.2013   -1.5144    0.0000 C   0  0  0  0  0  0  0  0  0  0  0  0
    7.7007   -1.4726    0.0000 N   0  0  0  0  0  0  0  0  0  0  0  0
    8.4142   -0.1531    0.0000 C   0  0  0  0  0  0  0  0  0  0  0  0
    7.6282    1.1245    0.0000 N   0  0  0  0  0  0  0  0  0  0  0  0
    6.1288    1.0826    0.0000 C   0  0  0  0  0  0  0  0  0  0  0  0
    9.9136   -0.1112    0.0000 N   0  0  0  0  0  0  0  0  0  0  0  0
   -1.9335   -2.9968    0.0000 C   0  0  0  0  0  0  0  0  0  0  0  0
   -3.2530   -2.2833    0.0000 N   0  0  0  0  0  0  0  0  0  0  0  0
   -3.2949   -0.7839    0.0000 C   0  0  0  0  0  0  0  0  0  0  0  0
   -4.6143   -0.0705    0.0000 C   0  0  0  0  0  0  0  0  0  0  0  0
   -5.8919   -0.8565    0.0000 N   0  0  0  0  0  0  0  0  0  0  0  0
   -5.8500   -2.3559    0.0000 C   0  0  0  0  0  0  0  0  0  0  0  0
   -4.5306   -3.0693    0.0000 C   0  0  0  0  0  0  0  0  0  0  0  0
   -7.2114   -0.1430    0.0000 C   0  0  0  0  0  0  0  0  0  0  0  0
   -8.4890   -0.9290    0.0000 O   0  0  0  0  0  0  0  0  0  0  0  0
   -7.2533    1.3564    0.0000 C   0  0  0  0  0  0  0  0  0  0  0  0
   -8.5728    2.0698    0.0000 C   0  0  0  0  0  0  0  0  0  0  0  0
   -5.9757    2.1424    0.0000 O   0  0  0  0  0  0  0  0  0  0  0  0
  1  2  1  0
  2  3  2  0
  3  4  1  0
  4  5  1  0
  5  6  2  0
  6  7  1  0
  7  8  2  0
  8  9  1  0
  9 10  2  0
 10 11  1  0
 11 12  1  0
 12 13  1  0
 13 14  1  0
 14 15  1  0
 15 16  1  0
  8 17  1  0
 17 18  2  0
 18 19  1  0
 19 20  2  0
 20 21  1  0
 21 22  2  0
 20 23  1  0
  3 24  1  0
 24 25  1  0
 25 26  1  0
 26 27  1  0
 27 28  1  0
 28 29  1  0
 29 30  1  0
 28 31  1  0
 31 32  2  0
 31 33  1  0
 33 34  1  6
 33 35  1  0
  6  2  1  0
 10  5  1  0
 16 11  1  0
 22 17  1  0
 30 25  1  0
M  END
>  <BrandName>  (45) 


>  <Applicants>  (45) 
Hoffmann-La Roche

>  <CHEMBL_ID>  (45) 
CHEMBL1922094

>  <Canonical_Smiles>  (45) 
Cc1c(sc2c1nc(nc2N3CCOCC3)c4cnc(nc4)N)CN5CCN(CC5)C(=O)[C@H](C)O

>  <Chirality>  (45) 
Single Stereoisomer

>  <First_Approval>  (45) 
nan

>  <Phase>  (45) 
2.0

>  <SC_Patent>  (45) 
nan

>  <Synonyms>  (45) 
APITOLISIB | G-038390 | G-038390.1 | GDC-0980 | GDC-0980.1 | GNE-390 | RG-7422 | RG7422

>  <Withdrawn>  (45) 
{''}

>  <Indications>  (45) 
nan

>  <Type>  (45) 
nan

>  <targets_id>  (45) 
P42336|P42345

>  <Inchi>  (45) 
InChI=1S/C23H30N8O3S/c1-14-17(13-29-3-5-31(6-4-29)22(33)15(2)32)35-19-18(14)27-20(16-11-25-23(24)26-12-16)28-21(19)30-7-9-34-10-8-30/h11-12,15,32H,3-10,13H2,1-2H3,(H2,24,25,26)/t15-/m0/s1

>  <stdInchikey>  (45) 
YOVVNQKCSKSHKT-HNNXBMFYSA-N

>  <csid>  (45) 
26325996

>  <Links>  (45) 
|http://www.chemspider.com/Chemical-Structure.26325996.html|https://www.ebi.ac.uk/chembldb/compound/inspect/CHEMBL1922094|https://pubchem.ncbi.nlm.nih.gov/compound/25254071|https://go.drugbank.com/drugs/DB12180|https://www.rcsb.org/ligand/980|https://www.ebi.ac.uk/pdbe-srv/pdbechem/chemicalCompound/show/980|https://www.guidetopharmacology.org/GRAC/LigandDisplayForward?7888|https://zinc15.docking.org/substances/ZINC000059224388|https://precision.fda.gov/uniisearch/srs/unii/1C854K1MIJ|https://www.bindingdb.org/bind/chemsearch/marvin/MolStructure.jsp?monomerid=50358204

>  <LinkName>  (45) 
|ChemSpider|ChEMBL|PubChem|DrugBank|RCSB|PDBe|Guide to Pharmacology|ZINC|FDA SRS|BindingDB

>  <lig_pdb_ID>  (45) 
980

>  <pdb_IDs>  (45) 
3tl5

>  <indicationDB>  (45) 


>  <uniprotId>  (45) 


>  <indicationG2P>  (45) 
None

>  <MW>  (45) 
498.2

>  <HBA>  (45) 
11

>  <HBD>  (45) 
2

>  <NRB>  (45) 
5

>  <TPSA>  (45) 
133.8

>  <LogP>  (45) 
0.9

>  <RoF>  (45) 
1

>  <Melting point>  (45) 
nan

>  <Targets>  (45) 
PIK3CA; MTOR

>  <Kinase families>  (45) 
Atypical

>  <FDA_approved>  (45) 


$$$$
Bimiralisib
     RDKit          2D

 29 32  0  0  0  0  0  0  0  0999 V2000
    4.5694    1.0558    0.0000 C   0  0  0  0  0  0  0  0  0  0  0  0
    3.1993    0.4452    0.0000 C   0  0  0  0  0  0  0  0  0  0  0  0
    1.9855    1.3263    0.0000 C   0  0  0  0  0  0  0  0  0  0  0  0
    2.1416    2.8182    0.0000 C   0  0  0  0  0  0  0  0  0  0  0  0
    3.5117    3.4289    0.0000 N   0  0  0  0  0  0  0  0  0  0  0  0
    4.7256    2.5477    0.0000 C   0  0  0  0  0  0  0  0  0  0  0  0
    6.0957    3.1584    0.0000 N   0  0  0  0  0  0  0  0  0  0  0  0
    0.6154    0.7157    0.0000 C   0  0  0  0  0  0  0  0  0  0  0  0
   -0.5985    1.5969    0.0000 N   0  0  0  0  0  0  0  0  0  0  0  0
   -1.9686    0.9862    0.0000 C   0  0  0  0  0  0  0  0  0  0  0  0
   -2.1247   -0.5057    0.0000 N   0  0  0  0  0  0  0  0  0  0  0  0
   -0.9109   -1.3868    0.0000 C   0  0  0  0  0  0  0  0  0  0  0  0
    0.4592   -0.7762    0.0000 N   0  0  0  0  0  0  0  0  0  0  0  0
   -1.0670   -2.8787    0.0000 N   0  0  0  0  0  0  0  0  0  0  0  0
   -2.4371   -3.4894    0.0000 C   0  0  0  0  0  0  0  0  0  0  0  0
   -2.5933   -4.9812    0.0000 C   0  0  0  0  0  0  0  0  0  0  0  0
   -1.3794   -5.8624    0.0000 O   0  0  0  0  0  0  0  0  0  0  0  0
   -0.0093   -5.2517    0.0000 C   0  0  0  0  0  0  0  0  0  0  0  0
    0.1469   -3.7599    0.0000 C   0  0  0  0  0  0  0  0  0  0  0  0
   -3.1825    1.8674    0.0000 N   0  0  0  0  0  0  0  0  0  0  0  0
   -3.0263    3.3592    0.0000 C   0  0  0  0  0  0  0  0  0  0  0  0
   -4.2402    4.2404    0.0000 C   0  0  0  0  0  0  0  0  0  0  0  0
   -5.6102    3.6297    0.0000 O   0  0  0  0  0  0  0  0  0  0  0  0
   -5.7664    2.1379    0.0000 C   0  0  0  0  0  0  0  0  0  0  0  0
   -4.5525    1.2567    0.0000 C   0  0  0  0  0  0  0  0  0  0  0  0
    3.0432   -1.0467    0.0000 C   0  0  0  0  0  0  0  0  0  0  0  0
    2.8870   -2.5385    0.0000 F   0  0  0  0  0  0  0  0  0  0  0  0
    4.5350   -1.2029    0.0000 F   0  0  0  0  0  0  0  0  0  0  0  0
    1.5513   -0.8905    0.0000 F   0  0  0  0  0  0  0  0  0  0  0  0
  1  2  2  0
  2  3  1  0
  3  4  2  0
  4  5  1  0
  5  6  1  0
  6  7  2  0
  3  8  1  0
  8  9  2  0
  9 10  1  0
 10 11  2  0
 11 12  1  0
 12 13  2  0
 12 14  1  0
 14 15  1  0
 15 16  1  0
 16 17  1  0
 17 18  1  0
 18 19  1  0
 10 20  1  0
 20 21  1  0
 21 22  1  0
 22 23  1  0
 23 24  1  0
 24 25  1  0
  2 26  1  0
 26 27  1  0
 26 28  1  0
 26 29  1  0
  6  1  1  0
 13  8  1  0
 19 14  1  0
 25 20  1  0
M  END
>  <BrandName>  (46) 


>  <Applicants>  (46) 
Piqur Therapeutics

>  <CHEMBL_ID>  (46) 
CHEMBL4084907

>  <Canonical_Smiles>  (46) 
c1c(c(c[nH]c1=N)c2nc(nc(n2)N3CCOCC3)N4CCOCC4)C(F)(F)F

>  <Chirality>  (46) 
Achiral Molecule

>  <First_Approval>  (46) 
nan

>  <Phase>  (46) 
2.0

>  <SC_Patent>  (46) 
nan

>  <Synonyms>  (46) 
BIMIRALISIB | NC-B5 | NCB5 | PI3K-IN-2 | PQR-309 | PQR309

>  <Withdrawn>  (46) 
{''}

>  <Indications>  (46) 
Bimiralisib (PQR309) is a novel dual inhibitor of phosphoinositol 3-kinase (PI3K) and mechanistic target of rapamycin (mTOR) kinases, with expected utility as an anti-cancer agent.

>  <Type>  (46) 
nan

>  <targets_id>  (46) 
nan

>  <Inchi>  (46) 
InChI=1S/C17H20F3N7O2/c18-17(19,20)12-9-13(21)22-10-11(12)14-23-15(26-1-5-28-6-2-26)25-16(24-14)27-3-7-29-8-4-27/h9-10H,1-8H2,(H2,21,22)

>  <stdInchikey>  (46) 
ADGGYDAFIHSYFI-UHFFFAOYSA-N

>  <csid>  (46) 
35033288

>  <Links>  (46) 
|http://www.chemspider.com/Chemical-Structure.35033288.html|https://www.ebi.ac.uk/chembldb/compound/inspect/CHEMBL4084907|https://pubchem.ncbi.nlm.nih.gov/compound/58507717|https://go.drugbank.com/drugs/DB14846|https://www.rcsb.org/ligand/A3W|https://www.ebi.ac.uk/pdbe-srv/pdbechem/chemicalCompound/show/A3W|https://www.guidetopharmacology.org/GRAC/LigandDisplayForward?8383|https://zinc15.docking.org/substances/ZINC000068203488|https://precision.fda.gov/uniisearch/srs/unii/6Z3QHB00LB|https://www.bindingdb.org/bind/chemsearch/marvin/MolStructure.jsp?monomerid=50240975

>  <LinkName>  (46) 
|ChemSpider|ChEMBL|PubChem|DrugBank|RCSB|PDBe|Guide to Pharmacology|ZINC|FDA SRS|BindingDB

>  <lig_pdb_ID>  (46) 
A3W

>  <pdb_IDs>  (46) 
5oq4

>  <indicationDB>  (46) 


>  <uniprotId>  (46) 


>  <indicationG2P>  (46) 
None

>  <MW>  (46) 
411.2

>  <HBA>  (46) 
8

>  <HBD>  (46) 
2

>  <NRB>  (46) 
3

>  <TPSA>  (46) 
103.2

>  <LogP>  (46) 
1.0

>  <RoF>  (46) 
0

>  <Melting point>  (46) 
nan

>  <Targets>  (46) 
nan

>  <Kinase families>  (46) 


>  <FDA_approved>  (46) 


$$$$
Risvodetinib
     RDKit          2D

 43 48  0  0  0  0  0  0  0  0999 V2000
   -8.5151    1.1498    0.0000 C   0  0  0  0  0  0  0  0  0  0  0  0
   -7.0871    1.6090    0.0000 C   0  0  0  0  0  0  0  0  0  0  0  0
   -6.7707    3.0753    0.0000 C   0  0  0  0  0  0  0  0  0  0  0  0
   -5.3427    3.5345    0.0000 C   0  0  0  0  0  0  0  0  0  0  0  0
   -4.2311    2.5274    0.0000 C   0  0  0  0  0  0  0  0  0  0  0  0
   -2.8031    2.9865    0.0000 N   0  0  0  0  0  0  0  0  0  0  0  0
   -1.6914    1.9794    0.0000 C   0  0  0  0  0  0  0  0  0  0  0  0
   -2.0078    0.5132    0.0000 O   0  0  0  0  0  0  0  0  0  0  0  0
   -0.2635    2.4386    0.0000 C   0  0  0  0  0  0  0  0  0  0  0  0
    0.8482    1.4315    0.0000 C   0  0  0  0  0  0  0  0  0  0  0  0
    2.2762    1.8907    0.0000 C   0  0  0  0  0  0  0  0  0  0  0  0
    2.5925    3.3569    0.0000 C   0  0  0  0  0  0  0  0  0  0  0  0
    4.0205    3.8161    0.0000 C   0  0  0  0  0  0  0  0  0  0  0  0
    5.1322    2.8090    0.0000 N   0  0  0  0  0  0  0  0  0  0  0  0
    4.8158    1.3428    0.0000 C   0  0  0  0  0  0  0  0  0  0  0  0
    5.9275    0.3357    0.0000 C   0  0  0  0  0  0  0  0  0  0  0  0
    7.3555    0.7948    0.0000 N   0  0  0  0  0  0  0  0  0  0  0  0
    8.4671   -0.2123    0.0000 C   0  0  0  0  0  0  0  0  0  0  0  0
    7.6718    2.2611    0.0000 C   0  0  0  0  0  0  0  0  0  0  0  0
    6.5602    3.2682    0.0000 C   0  0  0  0  0  0  0  0  0  0  0  0
    1.4809    4.3640    0.0000 C   0  0  0  0  0  0  0  0  0  0  0  0
    0.0529    3.9049    0.0000 C   0  0  0  0  0  0  0  0  0  0  0  0
   -4.5474    1.0611    0.0000 C   0  0  0  0  0  0  0  0  0  0  0  0
   -5.9754    0.6019    0.0000 C   0  0  0  0  0  0  0  0  0  0  0  0
   -6.2918   -0.8643    0.0000 N   0  0  0  0  0  0  0  0  0  0  0  0
   -5.1801   -1.8714    0.0000 C   0  0  0  0  0  0  0  0  0  0  0  0
   -5.4965   -3.3377    0.0000 N   0  0  0  0  0  0  0  0  0  0  0  0
   -4.3848   -4.3448    0.0000 C   0  0  0  0  0  0  0  0  0  0  0  0
   -2.9568   -3.8856    0.0000 C   0  0  0  0  0  0  0  0  0  0  0  0
   -2.6405   -2.4194    0.0000 C   0  0  0  0  0  0  0  0  0  0  0  0
   -1.2125   -1.9602    0.0000 C   0  0  0  0  0  0  0  0  0  0  0  0
   -0.8961   -0.4939    0.0000 C   0  0  0  0  0  0  0  0  0  0  0  0
    0.5319   -0.0347    0.0000 N   0  0  0  0  0  0  0  0  0  0  0  0
    1.6435   -1.0418    0.0000 C   0  0  0  0  0  0  0  0  0  0  0  0
    1.3272   -2.5081    0.0000 C   0  0  0  0  0  0  0  0  0  0  0  0
    2.4388   -3.5152    0.0000 C   0  0  0  0  0  0  0  0  0  0  0  0
    2.2775   -5.0065    0.0000 O   0  0  0  0  0  0  0  0  0  0  0  0
    3.6459   -5.6208    0.0000 N   0  0  0  0  0  0  0  0  0  0  0  0
    4.6530   -4.5091    0.0000 C   0  0  0  0  0  0  0  0  0  0  0  0
    3.9070   -3.2078    0.0000 C   0  0  0  0  0  0  0  0  0  0  0  0
    4.5213   -1.8394    0.0000 C   0  0  0  0  0  0  0  0  0  0  0  0
   -0.1008   -2.9673    0.0000 C   0  0  0  0  0  0  0  0  0  0  0  0
   -3.7521   -1.4123    0.0000 N   0  0  0  0  0  0  0  0  0  0  0  0
  1  2  1  0
  2  3  2  0
  3  4  1  0
  4  5  2  0
  5  6  1  0
  6  7  1  0
  7  8  2  0
  7  9  1  0
  9 10  2  0
 10 11  1  0
 11 12  2  0
 12 13  1  0
 13 14  1  0
 14 15  1  0
 15 16  1  0
 16 17  1  0
 17 18  1  0
 17 19  1  0
 19 20  1  0
 12 21  1  0
 21 22  2  0
  5 23  1  0
 23 24  2  0
 24 25  1  0
 25 26  1  0
 26 27  2  0
 27 28  1  0
 28 29  2  0
 29 30  1  0
 30 31  1  0
 31 32  2  0
 32 33  1  0
 33 34  2  0
 34 35  1  0
 35 36  1  0
 36 37  1  0
 37 38  1  0
 38 39  2  0
 39 40  1  0
 40 41  1  0
 35 42  2  0
 30 43  2  0
 24  2  1  0
 43 26  1  0
 22  9  1  0
 42 31  1  0
 20 14  1  0
 40 36  2  0
M  END
>  <BrandName>  (47) 


>  <Applicants>  (47) 
('Inhibikase Therapeutics',)

>  <CHEMBL_ID>  (47) 
CHEMBL5314481

>  <Canonical_Smiles>  (47) 
Cc1ccc(NC(=O)c2ccc(CN3CCN(C)CC3)cc2)cc1Nc1nccc(-c2cncc(-c3oncc3C)c2)n1

>  <Chirality>  (47) 
Achiral Molecule

>  <First_Approval>  (47) 
nan

>  <Phase>  (47) 
2.0

>  <SC_Patent>  (47) 
nan

>  <Synonyms>  (47) 
RISVODETINIB

>  <Withdrawn>  (47) 
nan

>  <Indications>  (47) 
nan

>  <Type>  (47) 
nan

>  <targets_id>  (47) 
nan

>  <Inchi>  (47) 
InChI=1S/C33H34N8O2/c1-22-4-9-28(37-32(42)25-7-5-24(6-8-25)21-41-14-12-40(3)13-15-41)17-30(22)39-33-35-11-10-29(38-33)26-16-27(20-34-19-26)31-23(2)18-36-43-31/h4-11,16-20H,12-15,21H2,1-3H3,(H,37,42)(H,35,38,39)

>  <stdInchikey>  (47) 
ADGOPPKEIZXKAZ-UHFFFAOYSA-N

>  <csid>  (47) 
128921253

>  <Links>  (47) 
|http://www.chemspider.com/Chemical-Structure.128921253.html|https://www.ebi.ac.uk/chembldb/compound/inspect/CHEMBL5314481|https://pubchem.ncbi.nlm.nih.gov/compound/122650693|https://www.bindingdb.org/bind/chemsearch/marvin/MolStructure.jsp?monomerid=481128

>  <LinkName>  (47) 
|ChemSpider|ChEMBL|PubChem|BindingDB

>  <lig_pdb_ID>  (47) 


>  <pdb_IDs>  (47) 


>  <indicationDB>  (47) 


>  <uniprotId>  (47) 


>  <indicationG2P>  (47) 


>  <MW>  (47) 
574.3

>  <HBA>  (47) 
9

>  <HBD>  (47) 
2

>  <NRB>  (47) 
8

>  <TPSA>  (47) 
112.3

>  <LogP>  (47) 
5.6

>  <RoF>  (47) 
2

>  <Melting point>  (47) 
nan

>  <Targets>  (47) 
nan

>  <Kinase families>  (47) 


>  <FDA_approved>  (47) 


$$$$
Dezapelisib
     RDKit          2D

 30 34  0  0  0  0  0  0  0  0999 V2000
    6.4901    0.2200    0.0000 C   0  0  0  0  0  0  0  0  0  0  0  0
    5.3958    1.2459    0.0000 C   0  0  0  0  0  0  0  0  0  0  0  0
    5.5826    2.7342    0.0000 C   0  0  0  0  0  0  0  0  0  0  0  0
    4.2249    3.3718    0.0000 S   0  0  0  0  0  0  0  0  0  0  0  0
    3.1989    2.2775    0.0000 C   0  0  0  0  0  0  0  0  0  0  0  0
    3.9226    0.9636    0.0000 N   0  0  0  0  0  0  0  0  0  0  0  0
    3.1466   -0.3201    0.0000 C   0  0  0  0  0  0  0  0  0  0  0  0
    3.8703   -1.6339    0.0000 O   0  0  0  0  0  0  0  0  0  0  0  0
    1.6469   -0.2899    0.0000 C   0  0  0  0  0  0  0  0  0  0  0  0
    0.9232    1.0240    0.0000 C   0  0  0  0  0  0  0  0  0  0  0  0
    1.6992    2.3077    0.0000 N   0  0  0  0  0  0  0  0  0  0  0  0
   -0.5765    1.0542    0.0000 C   0  0  0  0  0  0  0  0  0  0  0  0
   -1.3002    2.3681    0.0000 C   0  0  0  0  0  0  0  0  0  0  0  0
   -1.3525   -0.2295    0.0000 N   0  0  0  0  0  0  0  0  0  0  0  0
   -2.8522   -0.1993    0.0000 C   0  0  0  0  0  0  0  0  0  0  0  0
   -3.5759    1.1146    0.0000 C   0  0  0  0  0  0  0  0  0  0  0  0
   -5.0755    1.1448    0.0000 C   0  0  0  0  0  0  0  0  0  0  0  0
   -5.5103    2.5804    0.0000 N   0  0  0  0  0  0  0  0  0  0  0  0
   -4.2792    3.4375    0.0000 C   0  0  0  0  0  0  0  0  0  0  0  0
   -3.0837    2.5315    0.0000 N   0  0  0  0  0  0  0  0  0  0  0  0
   -5.8515   -0.1389    0.0000 N   0  0  0  0  0  0  0  0  0  0  0  0
   -5.1278   -1.4528    0.0000 C   0  0  0  0  0  0  0  0  0  0  0  0
   -3.6281   -1.4830    0.0000 N   0  0  0  0  0  0  0  0  0  0  0  0
    0.8709   -1.5735    0.0000 C   0  0  0  0  0  0  0  0  0  0  0  0
   -0.6288   -1.5434    0.0000 C   0  0  0  0  0  0  0  0  0  0  0  0
   -1.4048   -2.8270    0.0000 C   0  0  0  0  0  0  0  0  0  0  0  0
   -0.6811   -4.1409    0.0000 C   0  0  0  0  0  0  0  0  0  0  0  0
    0.8186   -4.1711    0.0000 C   0  0  0  0  0  0  0  0  0  0  0  0
    1.5946   -2.8874    0.0000 C   0  0  0  0  0  0  0  0  0  0  0  0
    1.5423   -5.4850    0.0000 F   0  0  0  0  0  0  0  0  0  0  0  0
  1  2  1  0
  2  3  2  0
  3  4  1  0
  4  5  1  0
  5  6  1  0
  6  7  1  0
  7  8  2  0
  7  9  1  0
  9 10  2  0
 10 11  1  0
 10 12  1  0
 12 13  1  1
 12 14  1  0
 14 15  1  0
 15 16  1  0
 16 17  2  0
 17 18  1  0
 18 19  1  0
 19 20  2  0
 17 21  1  0
 21 22  2  0
 22 23  1  0
  9 24  1  0
 24 25  2  0
 25 26  1  0
 26 27  2  0
 27 28  1  0
 28 29  2  0
 28 30  1  0
  6  2  1  0
 11  5  2  0
 23 15  2  0
 20 16  1  0
 29 24  1  0
M  END
>  <BrandName>  (48) 


>  <Applicants>  (48) 
Incyte Corporation

>  <CHEMBL_ID>  (48) 
CHEMBL2216863

>  <Canonical_Smiles>  (48) 
Cc1csc2n1c(=O)c(c(n2)[C@H](C)Nc3c4c([nH]cn4)ncn3)c5cccc(c5)F

>  <Chirality>  (48) 
Single Stereoisomer

>  <First_Approval>  (48) 
nan

>  <Phase>  (48) 
2.0

>  <SC_Patent>  (48) 
nan

>  <Synonyms>  (48) 
DEZAPELISIB | INCB040093

>  <Withdrawn>  (48) 
nan

>  <Indications>  (48) 
nan

>  <Type>  (48) 
nan

>  <targets_id>  (48) 
nan

>  <Inchi>  (48) 
InChI=1S/C20H16FN7OS/c1-10-7-30-20-27-15(11(2)26-18-16-17(23-8-22-16)24-9-25-18)14(19(29)28(10)20)12-4-3-5-13(21)6-12/h3-9,11H,1-2H3,(H2,22,23,24,25,26)/t11-/m0/s1

>  <stdInchikey>  (48) 
RSIWALKZYXPAGW-NSHDSACASA-N

>  <csid>  (48) 
28651137

>  <Links>  (48) 
|http://www.chemspider.com/Chemical-Structure.28651137.html|https://www.ebi.ac.uk/chembldb/compound/inspect/CHEMBL2216863|https://pubchem.ncbi.nlm.nih.gov/compound/58111426|https://go.drugbank.com/drugs/DB16137|https://www.guidetopharmacology.org/GRAC/LigandDisplayForward?9728|https://zinc15.docking.org/substances/ZINC000095564453|https://precision.fda.gov/uniisearch/srs/unii/2K59L7G59M|https://www.bindingdb.org/bind/chemsearch/marvin/MolStructure.jsp?monomerid=50004547

>  <LinkName>  (48) 
|ChemSpider|ChEMBL|PubChem|DrugBank|Guide to Pharmacology|ZINC|FDA SRS|BindingDB

>  <lig_pdb_ID>  (48) 


>  <pdb_IDs>  (48) 


>  <indicationDB>  (48) 


>  <uniprotId>  (48) 


>  <indicationG2P>  (48) 
None

>  <MW>  (48) 
421.1

>  <HBA>  (48) 
8

>  <HBD>  (48) 
2

>  <NRB>  (48) 
4

>  <TPSA>  (48) 
100.9

>  <LogP>  (48) 
3.7

>  <RoF>  (48) 
0

>  <Melting point>  (48) 
nan

>  <Targets>  (48) 
nan

>  <Kinase families>  (48) 


>  <FDA_approved>  (48) 


$$$$
Londamocitinib
     RDKit          2D

 42 46  0  0  0  0  0  0  0  0999 V2000
   -8.5187   -4.7242    0.0000 C   0  0  0  0  0  0  0  0  0  0  0  0
   -7.8463   -3.3834    0.0000 O   0  0  0  0  0  0  0  0  0  0  0  0
   -6.3488   -3.2953    0.0000 C   0  0  0  0  0  0  0  0  0  0  0  0
   -5.6764   -1.9545    0.0000 C   0  0  0  0  0  0  0  0  0  0  0  0
   -4.1790   -1.8665    0.0000 C   0  0  0  0  0  0  0  0  0  0  0  0
   -3.3540   -3.1192    0.0000 O   0  0  0  0  0  0  0  0  0  0  0  0
   -3.5065   -0.5257    0.0000 N   0  0  0  0  0  0  0  0  0  0  0  0
   -2.0091   -0.4376    0.0000 C   0  0  0  0  0  0  0  0  0  0  0  0
   -1.1841   -1.6904    0.0000 C   0  0  0  0  0  0  0  0  0  0  0  0
    0.3133   -1.6023    0.0000 C   0  0  0  0  0  0  0  0  0  0  0  0
    0.9857   -0.2615    0.0000 C   0  0  0  0  0  0  0  0  0  0  0  0
    0.1608    0.9913    0.0000 C   0  0  0  0  0  0  0  0  0  0  0  0
    0.5398    2.4426    0.0000 C   0  0  0  0  0  0  0  0  0  0  0  0
    1.9367    2.9891    0.0000 C   0  0  0  0  0  0  0  0  0  0  0  0
    3.1084    2.0525    0.0000 N   0  0  0  0  0  0  0  0  0  0  0  0
    4.5053    2.5990    0.0000 C   0  0  0  0  0  0  0  0  0  0  0  0
    5.6770    1.6624    0.0000 N   0  0  0  0  0  0  0  0  0  0  0  0
    5.4518    0.1794    0.0000 C   0  0  0  0  0  0  0  0  0  0  0  0
    4.0549   -0.3670    0.0000 C   0  0  0  0  0  0  0  0  0  0  0  0
    3.8297   -1.8500    0.0000 C   0  0  0  0  0  0  0  0  0  0  0  0
    5.0014   -2.7865    0.0000 C   0  0  0  0  0  0  0  0  0  0  0  0
    6.3983   -2.2401    0.0000 C   0  0  0  0  0  0  0  0  0  0  0  0
    7.5700   -3.1766    0.0000 S   0  0  0  0  0  0  0  0  0  0  0  0
    8.7417   -4.1132    0.0000 C   0  0  0  0  0  0  0  0  0  0  0  0
    8.5066   -2.0049    0.0000 O   0  0  0  0  0  0  0  0  0  0  0  0
    6.6335   -4.3483    0.0000 O   0  0  0  0  0  0  0  0  0  0  0  0
    6.6235   -0.7571    0.0000 C   0  0  0  0  0  0  0  0  0  0  0  0
    8.0204   -0.2106    0.0000 F   0  0  0  0  0  0  0  0  0  0  0  0
    4.7305    4.0820    0.0000 N   0  0  0  0  0  0  0  0  0  0  0  0
    3.5588    5.0185    0.0000 C   0  0  0  0  0  0  0  0  0  0  0  0
    2.1619    4.4720    0.0000 C   0  0  0  0  0  0  0  0  0  0  0  0
    0.9902    5.4086    0.0000 F   0  0  0  0  0  0  0  0  0  0  0  0
   -0.7234    3.2515    0.0000 C   0  0  0  0  0  0  0  0  0  0  0  0
   -1.8831    2.3001    0.0000 N   0  0  0  0  0  0  0  0  0  0  0  0
   -1.3366    0.9032    0.0000 C   0  0  0  0  0  0  0  0  0  0  0  0
   -6.5013   -0.7017    0.0000 N   0  0  0  0  0  0  0  0  0  0  0  0
   -5.8289    0.6391    0.0000 C   0  0  0  0  0  0  0  0  0  0  0  0
   -6.6538    1.8919    0.0000 C   0  0  0  0  0  0  0  0  0  0  0  0
   -8.1513    1.8038    0.0000 N   0  0  0  0  0  0  0  0  0  0  0  0
   -8.9762    3.0566    0.0000 C   0  0  0  0  0  0  0  0  0  0  0  0
   -8.8237    0.4630    0.0000 C   0  0  0  0  0  0  0  0  0  0  0  0
   -7.9988   -0.7898    0.0000 C   0  0  0  0  0  0  0  0  0  0  0  0
  1  2  1  0
  2  3  1  0
  4  3  1  1
  4  5  1  0
  5  6  2  0
  5  7  1  0
  7  8  1  0
  8  9  2  0
  9 10  1  0
 10 11  2  0
 11 12  1  0
 12 13  1  0
 13 14  1  0
 14 15  2  0
 15 16  1  0
 16 17  1  0
 17 18  1  0
 18 19  2  0
 19 20  1  0
 20 21  2  0
 21 22  1  0
 22 23  1  0
 23 24  1  0
 23 25  2  0
 23 26  2  0
 22 27  2  0
 27 28  1  0
 16 29  2  0
 29 30  1  0
 30 31  2  0
 31 32  1  0
 13 33  2  0
 33 34  1  0
 34 35  1  0
  4 36  1  0
 36 37  1  0
 37 38  1  0
 38 39  1  0
 39 40  1  0
 39 41  1  0
 41 42  1  0
 35  8  1  0
 42 36  1  0
 35 12  2  0
 31 14  1  0
 27 18  1  0
M  END
>  <BrandName>  (49) 


>  <Applicants>  (49) 
('',)

>  <CHEMBL_ID>  (49) 
CHEMBL4447181

>  <Canonical_Smiles>  (49) 
COC[C@H](C(=O)Nc1cccc2c(-c3nc(Nc4cccc(S(C)(=O)=O)c4F)ncc3F)c[nH]c12)N1CCN(C)CC1

>  <Chirality>  (49) 
Unknown

>  <First_Approval>  (49) 
nan

>  <Phase>  (49) 
2.0

>  <SC_Patent>  (49) 
nan

>  <Synonyms>  (49) 
LONDAMOCITINIB

>  <Withdrawn>  (49) 
nan

>  <Indications>  (49) 
nan

>  <Type>  (49) 
nan

>  <targets_id>  (49) 
nan

>  <Inchi>  (49) 
InChI=1S/C28H31F2N7O4S/c1-36-10-12-37(13-11-36)22(16-41-2)27(38)33-21-8-4-6-17-18(14-31-26(17)21)25-19(29)15-32-28(35-25)34-20-7-5-9-23(24(20)30)42(3,39)40/h4-9,14-15,22,31H,10-13,16H2,1-3H3,(H,33,38)(H,32,34,35)/t22-/m1/s1

>  <stdInchikey>  (49) 
JNUZADQZHYFJGW-JOCHJYFZSA-N

>  <csid>  (49) 
nan

>  <Links>  (49) 
|http://www.chemspider.com/Chemical-Structure.nan.html|https://www.ebi.ac.uk/chembldb/compound/inspect/CHEMBL4447181|https://pubchem.ncbi.nlm.nih.gov/compound/135240395|https://precision.fda.gov/uniisearch/srs/unii/JAC34RRR7S

>  <LinkName>  (49) 
|ChemSpider|ChEMBL|PubChem|FDA SRS

>  <lig_pdb_ID>  (49) 


>  <pdb_IDs>  (49) 


>  <indicationDB>  (49) 


>  <uniprotId>  (49) 


>  <indicationG2P>  (49) 


>  <MW>  (49) 
599.2

>  <HBA>  (49) 
9

>  <HBD>  (49) 
3

>  <NRB>  (49) 
9

>  <TPSA>  (49) 
132.6

>  <LogP>  (49) 
3.3

>  <RoF>  (49) 
1

>  <Melting point>  (49) 
nan

>  <Targets>  (49) 
nan

>  <Kinase families>  (49) 


>  <FDA_approved>  (49) 


$$$$
Tanzisertib
     RDKit          2D

 32 36  0  0  0  0  0  0  0  0999 V2000
   -5.8888    1.6004    0.0000 C   0  0  0  0  0  0  0  0  0  0  0  0
   -4.4970    1.0411    0.0000 C   0  0  0  0  0  0  0  0  0  0  0  0
   -4.2854   -0.4439    0.0000 C   0  0  0  0  0  0  0  0  0  0  0  0
   -5.4657   -1.3696    0.0000 C   0  0  0  0  0  0  0  0  0  0  0  0
   -6.8575   -0.8104    0.0000 C   0  0  0  0  0  0  0  0  0  0  0  0
   -7.0691    0.6746    0.0000 C   0  0  0  0  0  0  0  0  0  0  0  0
   -8.4609    1.2339    0.0000 F   0  0  0  0  0  0  0  0  0  0  0  0
   -5.2541   -2.8547    0.0000 F   0  0  0  0  0  0  0  0  0  0  0  0
   -2.8936   -1.0032    0.0000 N   0  0  0  0  0  0  0  0  0  0  0  0
   -1.7133   -0.0775    0.0000 C   0  0  0  0  0  0  0  0  0  0  0  0
   -0.2706   -0.4882    0.0000 N   0  0  0  0  0  0  0  0  0  0  0  0
    0.5658    0.7569    0.0000 C   0  0  0  0  0  0  0  0  0  0  0  0
    2.0508    0.9685    0.0000 N   0  0  0  0  0  0  0  0  0  0  0  0
    2.6101    2.3604    0.0000 C   0  0  0  0  0  0  0  0  0  0  0  0
    1.6843    3.5406    0.0000 N   0  0  0  0  0  0  0  0  0  0  0  0
    0.1993    3.3291    0.0000 C   0  0  0  0  0  0  0  0  0  0  0  0
   -0.3599    1.9372    0.0000 C   0  0  0  0  0  0  0  0  0  0  0  0
   -1.7685    1.4215    0.0000 N   0  0  0  0  0  0  0  0  0  0  0  0
    4.0951    2.5719    0.0000 N   0  0  0  0  0  0  0  0  0  0  0  0
    5.0208    1.3917    0.0000 C   0  0  0  0  0  0  0  0  0  0  0  0
    4.4615   -0.0002    0.0000 C   0  0  0  0  0  0  0  0  0  0  0  0
    5.3873   -1.1804    0.0000 C   0  0  0  0  0  0  0  0  0  0  0  0
    6.8723   -0.9689    0.0000 C   0  0  0  0  0  0  0  0  0  0  0  0
    7.4315    0.4230    0.0000 C   0  0  0  0  0  0  0  0  0  0  0  0
    6.5058    1.6032    0.0000 C   0  0  0  0  0  0  0  0  0  0  0  0
    7.7980   -2.1491    0.0000 O   0  0  0  0  0  0  0  0  0  0  0  0
    0.2451   -1.8968    0.0000 C   0  0  0  0  0  0  0  0  0  0  0  0
    1.6877   -2.3075    0.0000 C   0  0  0  0  0  0  0  0  0  0  0  0
    1.7429   -3.8065    0.0000 O   0  0  0  0  0  0  0  0  0  0  0  0
    0.3344   -4.3222    0.0000 C   0  0  0  0  0  0  0  0  0  0  0  0
   -0.5914   -3.1419    0.0000 C   0  0  0  0  0  0  0  0  0  0  0  0
   -3.3167    1.9668    0.0000 F   0  0  0  0  0  0  0  0  0  0  0  0
  1  2  2  0
  2  3  1  0
  3  4  2  0
  4  5  1  0
  5  6  2  0
  6  7  1  0
  4  8  1  0
  3  9  1  0
  9 10  1  0
 10 11  1  0
 11 12  1  0
 12 13  2  0
 13 14  1  0
 14 15  2  0
 15 16  1  0
 16 17  2  0
 17 18  1  0
 14 19  1  0
 20 19  1  6
 20 21  1  0
 21 22  1  0
 22 23  1  0
 23 24  1  0
 24 25  1  0
 23 26  1  1
 27 11  1  6
 27 28  1  0
 28 29  1  0
 29 30  1  0
 30 31  1  0
  2 32  1  0
  6  1  1  0
 18 10  2  0
 17 12  1  0
 25 20  1  0
 31 27  1  0
M  END
>  <BrandName>  (50) 


>  <Applicants>  (50) 
Celgene

>  <CHEMBL_ID>  (50) 
CHEMBL1950289

>  <Canonical_Smiles>  (50) 
c1c(c(c(cc1F)F)Nc2n(c3nc(ncc3n2)N[C@H]4CC[C@@H](CC4)O)[C@@H]5COCC5)F

>  <Chirality>  (50) 
Single Stereoisomer

>  <First_Approval>  (50) 
nan

>  <Phase>  (50) 
2.0

>  <SC_Patent>  (50) 
nan

>  <Synonyms>  (50) 
CC-930 | JNK 930 | JNK-930 | JNK930 | TANZISERTIB

>  <Withdrawn>  (50) 
nan

>  <Indications>  (50) 
nan

>  <Type>  (50) 
1

>  <targets_id>  (50) 
P45983

>  <Inchi>  (50) 
InChI=1S/C21H23F3N6O2/c22-11-7-15(23)18(16(24)8-11)28-21-27-17-9-25-20(26-12-1-3-14(31)4-2-12)29-19(17)30(21)13-5-6-32-10-13/h7-9,12-14,31H,1-6,10H2,(H,27,28)(H,25,26,29)/t12-,13-,14-/m0/s1

>  <stdInchikey>  (50) 
IBGLGMOPHJQDJB-IHRRRGAJSA-N

>  <csid>  (50) 
28492361

>  <Links>  (50) 
|http://www.chemspider.com/Chemical-Structure.28492361.html|https://www.ebi.ac.uk/chembldb/compound/inspect/CHEMBL1950289|https://go.drugbank.com/drugs/DB11798|https://www.rcsb.org/ligand/KBI|https://www.ebi.ac.uk/pdbe-srv/pdbechem/chemicalCompound/show/KBI|https://zinc15.docking.org/substances/ZINC000102930548|https://precision.fda.gov/uniisearch/srs/unii/M5O06306UO|https://www.bindingdb.org/bind/chemsearch/marvin/MolStructure.jsp?monomerid=50364378

>  <LinkName>  (50) 
|ChemSpider|ChEMBL|DrugBank|RCSB|PDBe|ZINC|FDA SRS|BindingDB

>  <lig_pdb_ID>  (50) 
KBI

>  <pdb_IDs>  (50) 
3tti

>  <indicationDB>  (50) 


>  <uniprotId>  (50) 


>  <indicationG2P>  (50) 


>  <MW>  (50) 
448.2

>  <HBA>  (50) 
8

>  <HBD>  (50) 
3

>  <NRB>  (50) 
5

>  <TPSA>  (50) 
97.1

>  <LogP>  (50) 
3.7

>  <RoF>  (50) 
0

>  <Melting point>  (50) 
nan

>  <Targets>  (50) 
MAPK8

>  <Kinase families>  (50) 
CMGC

>  <FDA_approved>  (50) 


$$$$
Amcasertib
     RDKit          2D

 39 43  0  0  0  0  0  0  0  0999 V2000
  -12.5966   -1.6608    0.0000 C   0  0  0  0  0  0  0  0  0  0  0  0
  -11.3958   -0.7617    0.0000 C   0  0  0  0  0  0  0  0  0  0  0  0
  -10.0169   -1.3521    0.0000 N   0  0  0  0  0  0  0  0  0  0  0  0
   -9.8387   -2.8415    0.0000 C   0  0  0  0  0  0  0  0  0  0  0  0
  -11.0395   -3.7405    0.0000 C   0  0  0  0  0  0  0  0  0  0  0  0
   -8.8162   -0.4531    0.0000 C   0  0  0  0  0  0  0  0  0  0  0  0
   -7.4372   -1.0435    0.0000 C   0  0  0  0  0  0  0  0  0  0  0  0
   -6.2365   -0.1445    0.0000 N   0  0  0  0  0  0  0  0  0  0  0  0
   -4.8575   -0.7348    0.0000 C   0  0  0  0  0  0  0  0  0  0  0  0
   -4.6793   -2.2242    0.0000 O   0  0  0  0  0  0  0  0  0  0  0  0
   -3.6568    0.1642    0.0000 C   0  0  0  0  0  0  0  0  0  0  0  0
   -2.2237   -0.2788    0.0000 C   0  0  0  0  0  0  0  0  0  0  0  0
   -1.3595    0.9472    0.0000 C   0  0  0  0  0  0  0  0  0  0  0  0
   -2.2585    2.1480    0.0000 N   0  0  0  0  0  0  0  0  0  0  0  0
   -3.6783    1.6640    0.0000 C   0  0  0  0  0  0  0  0  0  0  0  0
   -4.9044    2.5282    0.0000 C   0  0  0  0  0  0  0  0  0  0  0  0
    0.1403    0.9688    0.0000 C   0  0  0  0  0  0  0  0  0  0  0  0
    0.8716    2.2784    0.0000 C   0  0  0  0  0  0  0  0  0  0  0  0
    2.3610    2.4566    0.0000 C   0  0  0  0  0  0  0  0  0  0  0  0
    3.4900    1.4690    0.0000 C   0  0  0  0  0  0  0  0  0  0  0  0
    4.9098    1.9530    0.0000 C   0  0  0  0  0  0  0  0  0  0  0  0
    5.2005    3.4245    0.0000 C   0  0  0  0  0  0  0  0  0  0  0  0
    4.0715    4.4121    0.0000 C   0  0  0  0  0  0  0  0  0  0  0  0
    2.6517    3.9282    0.0000 C   0  0  0  0  0  0  0  0  0  0  0  0
    1.3421    4.6594    0.0000 N   0  0  0  0  0  0  0  0  0  0  0  0
    0.2419    3.6398    0.0000 C   0  0  0  0  0  0  0  0  0  0  0  0
   -1.2297    3.9306    0.0000 O   0  0  0  0  0  0  0  0  0  0  0  0
    6.0388    0.9654    0.0000 C   0  0  0  0  0  0  0  0  0  0  0  0
    7.5014    1.2983    0.0000 C   0  0  0  0  0  0  0  0  0  0  0  0
    8.2699    0.0101    0.0000 S   0  0  0  0  0  0  0  0  0  0  0  0
    7.2823   -1.1189    0.0000 C   0  0  0  0  0  0  0  0  0  0  0  0
    5.9034   -0.5285    0.0000 N   0  0  0  0  0  0  0  0  0  0  0  0
    7.6152   -2.5815    0.0000 C   0  0  0  0  0  0  0  0  0  0  0  0
    6.5150   -3.6011    0.0000 C   0  0  0  0  0  0  0  0  0  0  0  0
    6.8479   -5.0636    0.0000 C   0  0  0  0  0  0  0  0  0  0  0  0
    8.2810   -5.5066    0.0000 C   0  0  0  0  0  0  0  0  0  0  0  0
    9.3812   -4.4870    0.0000 C   0  0  0  0  0  0  0  0  0  0  0  0
    9.0483   -3.0245    0.0000 C   0  0  0  0  0  0  0  0  0  0  0  0
   -1.7397   -1.6986    0.0000 C   0  0  0  0  0  0  0  0  0  0  0  0
  1  2  1  0
  2  3  1  0
  3  4  1  0
  4  5  1  0
  3  6  1  0
  6  7  1  0
  7  8  1  0
  8  9  1  0
  9 10  2  0
  9 11  1  0
 11 12  1  0
 12 13  2  0
 13 14  1  0
 14 15  1  0
 15 16  1  0
 13 17  1  0
 17 18  2  0
 18 19  1  0
 19 20  2  0
 20 21  1  0
 21 22  2  0
 22 23  1  0
 23 24  2  0
 24 25  1  0
 25 26  1  0
 26 27  2  0
 21 28  1  0
 28 29  2  0
 29 30  1  0
 30 31  1  0
 31 32  2  0
 31 33  1  0
 33 34  2  0
 34 35  1  0
 35 36  2  0
 36 37  1  0
 37 38  2  0
 12 39  1  0
 15 11  2  0
 26 18  1  0
 24 19  1  0
 32 28  1  0
 38 33  1  0
M  END
>  <BrandName>  (51) 


>  <Applicants>  (51) 
Boston Biomedical

>  <CHEMBL_ID>  (51) 
CHEMBL3707349

>  <Canonical_Smiles>  (51) 
CCN(CC)CCNC(=O)c1c(c([nH]c1C)/C=C\2/c3cc(ccc3NC2=O)c4csc(n4)c5ccccc5)C

>  <Chirality>  (51) 
Achiral Molecule

>  <First_Approval>  (51) 
nan

>  <Phase>  (51) 
2.0

>  <SC_Patent>  (51) 
nan

>  <Synonyms>  (51) 
AMCASERTIB | BBI-503 | BBI503

>  <Withdrawn>  (51) 
{''}

>  <Indications>  (51) 
nan

>  <Type>  (51) 
nan

>  <targets_id>  (51) 
P16234

>  <Inchi>  (51) 
InChI=1S/C31H33N5O2S/c1-5-36(6-2)15-14-32-30(38)28-19(3)26(33-20(28)4)17-24-23-16-22(12-13-25(23)34-29(24)37)27-18-39-31(35-27)21-10-8-7-9-11-21/h7-13,16-18,33H,5-6,14-15H2,1-4H3,(H,32,38)(H,34,37)/b24-17-

>  <stdInchikey>  (51) 
QDWKGEFGLQMDAM-ULJHMMPZSA-N

>  <csid>  (51) 
44208821

>  <Links>  (51) 
|http://www.chemspider.com/Chemical-Structure.44208821.html|https://www.ebi.ac.uk/chembldb/compound/inspect/CHEMBL3707349|https://pubchem.ncbi.nlm.nih.gov/compound/25190990|https://go.drugbank.com/drugs/DB14866|https://precision.fda.gov/uniisearch/srs/unii/GLY8ABW25V

>  <LinkName>  (51) 
|ChemSpider|ChEMBL|PubChem|DrugBank|FDA SRS

>  <lig_pdb_ID>  (51) 


>  <pdb_IDs>  (51) 


>  <indicationDB>  (51) 


>  <uniprotId>  (51) 


>  <indicationG2P>  (51) 


>  <MW>  (51) 
539.2

>  <HBA>  (51) 
5

>  <HBD>  (51) 
3

>  <NRB>  (51) 
9

>  <TPSA>  (51) 
90.1

>  <LogP>  (51) 
6.0

>  <RoF>  (51) 
2

>  <Melting point>  (51) 
nan

>  <Targets>  (51) 
PDGFRA

>  <Kinase families>  (51) 
Tyr

>  <FDA_approved>  (51) 


$$$$
Unecritinib
     RDKit          2D

 33 36  0  0  0  0  0  0  0  0999 V2000
    5.3558   -4.9347    0.0000 C   0  0  0  0  0  0  0  0  0  0  0  0
    3.8900   -4.6162    0.0000 C   0  0  0  0  0  0  0  0  0  0  0  0
    2.8813   -5.7264    0.0000 O   0  0  0  0  0  0  0  0  0  0  0  0
    3.4330   -3.1875    0.0000 N   0  0  0  0  0  0  0  0  0  0  0  0
    1.9672   -2.8690    0.0000 C   0  0  0  0  0  0  0  0  0  0  0  0
    0.9585   -3.9792    0.0000 N   0  0  0  0  0  0  0  0  0  0  0  0
   -0.5073   -3.6606    0.0000 C   0  0  0  0  0  0  0  0  0  0  0  0
   -0.9644   -2.2320    0.0000 C   0  0  0  0  0  0  0  0  0  0  0  0
   -2.4302   -1.9134    0.0000 C   0  0  0  0  0  0  0  0  0  0  0  0
   -3.5494   -2.9121    0.0000 C   0  0  0  0  0  0  0  0  0  0  0  0
   -4.8451   -2.1562    0.0000 N   0  0  0  0  0  0  0  0  0  0  0  0
   -4.5265   -0.6904    0.0000 N   0  0  0  0  0  0  0  0  0  0  0  0
   -5.5252    0.4289    0.0000 C   0  0  0  0  0  0  0  0  0  0  0  0
   -5.0552    1.8533    0.0000 C   0  0  0  0  0  0  0  0  0  0  0  0
   -6.0538    2.9726    0.0000 C   0  0  0  0  0  0  0  0  0  0  0  0
   -7.5224    2.6674    0.0000 N   0  0  0  0  0  0  0  0  0  0  0  0
   -7.9924    1.2429    0.0000 C   0  0  0  0  0  0  0  0  0  0  0  0
   -6.9938    0.1237    0.0000 C   0  0  0  0  0  0  0  0  0  0  0  0
   -3.0341   -0.5404    0.0000 C   0  0  0  0  0  0  0  0  0  0  0  0
    0.0444   -1.1218    0.0000 C   0  0  0  0  0  0  0  0  0  0  0  0
    1.5102   -1.4403    0.0000 C   0  0  0  0  0  0  0  0  0  0  0  0
    2.5189   -0.3302    0.0000 O   0  0  0  0  0  0  0  0  0  0  0  0
    2.0619    1.0985    0.0000 C   0  0  0  0  0  0  0  0  0  0  0  0
    0.5961    1.4170    0.0000 C   0  0  0  0  0  0  0  0  0  0  0  0
    3.0706    2.2086    0.0000 C   0  0  0  0  0  0  0  0  0  0  0  0
    4.5364    1.8901    0.0000 C   0  0  0  0  0  0  0  0  0  0  0  0
    4.9934    0.4614    0.0000 Cl  0  0  0  0  0  0  0  0  0  0  0  0
    5.5451    3.0003    0.0000 C   0  0  0  0  0  0  0  0  0  0  0  0
    5.0881    4.4289    0.0000 C   0  0  0  0  0  0  0  0  0  0  0  0
    3.6223    4.7475    0.0000 C   0  0  0  0  0  0  0  0  0  0  0  0
    3.1652    6.1761    0.0000 F   0  0  0  0  0  0  0  0  0  0  0  0
    2.6135    3.6373    0.0000 C   0  0  0  0  0  0  0  0  0  0  0  0
    1.1478    3.9558    0.0000 Cl  0  0  0  0  0  0  0  0  0  0  0  0
  1  2  1  0
  2  3  2  0
  2  4  1  0
  4  5  1  0
  5  6  2  0
  6  7  1  0
  7  8  2  0
  8  9  1  0
  9 10  1  0
 10 11  2  0
 11 12  1  0
 12 13  1  0
 13 14  1  0
 14 15  1  0
 15 16  1  0
 16 17  1  0
 17 18  1  0
 12 19  1  0
  8 20  1  0
 20 21  2  0
 21 22  1  0
 22 23  1  0
 23 24  1  6
 23 25  1  0
 25 26  2  0
 26 27  1  0
 26 28  1  0
 28 29  2  0
 29 30  1  0
 30 31  1  0
 30 32  2  0
 32 33  1  0
 21  5  1  0
 32 25  1  0
 19  9  2  0
 18 13  1  0
M  END
>  <BrandName>  (52) 


>  <Applicants>  (52) 
('Chia Tai Tianqing Pharmaceutical Group',)

>  <CHEMBL_ID>  (52) 
CHEMBL5314968

>  <Canonical_Smiles>  (52) 
CC(=O)Nc1ncc(-c2cnn(C3CCNCC3)c2)cc1O[C@H](C)c1c(Cl)ccc(F)c1Cl

>  <Chirality>  (52) 
Unknown

>  <First_Approval>  (52) 
nan

>  <Phase>  (52) 
2.0

>  <SC_Patent>  (52) 
nan

>  <Synonyms>  (52) 
TQ-B3101 | TQB3101 | UNECRITINIB

>  <Withdrawn>  (52) 
nan

>  <Indications>  (52) 
nan

>  <Type>  (52) 
nan

>  <targets_id>  (52) 
nan

>  <Inchi>  (52) 
InChI=1S/C23H24Cl2FN5O2/c1-13(21-18(24)3-4-19(26)22(21)25)33-20-9-15(10-28-23(20)30-14(2)32)16-11-29-31(12-16)17-5-7-27-8-6-17/h3-4,9-13,17,27H,5-8H2,1-2H3,(H,28,30,32)/t13-/m1/s1

>  <stdInchikey>  (52) 
HBWSXXBJOQKNBL-CYBMUJFWSA-N

>  <csid>  (52) 
128922158

>  <Links>  (52) 
|http://www.chemspider.com/Chemical-Structure.128922158.html|https://www.ebi.ac.uk/chembldb/compound/inspect/CHEMBL5314968|https://pubchem.ncbi.nlm.nih.gov/compound/71506874

>  <LinkName>  (52) 
|ChemSpider|ChEMBL|PubChem

>  <lig_pdb_ID>  (52) 


>  <pdb_IDs>  (52) 


>  <indicationDB>  (52) 


>  <uniprotId>  (52) 


>  <indicationG2P>  (52) 


>  <MW>  (52) 
491.1

>  <HBA>  (52) 
6

>  <HBD>  (52) 
2

>  <NRB>  (52) 
6

>  <TPSA>  (52) 
81.1

>  <LogP>  (52) 
5.4

>  <RoF>  (52) 
1

>  <Melting point>  (52) 
nan

>  <Targets>  (52) 
nan

>  <Kinase families>  (52) 


>  <FDA_approved>  (52) 


$$$$
Andamertinib
     RDKit          2D

 42 47  0  0  0  0  0  0  0  0999 V2000
    6.2119    6.2178    0.0000 C   0  0  0  0  0  0  0  0  0  0  0  0
    5.1510    5.1575    0.0000 N   0  0  0  0  0  0  0  0  0  0  0  0
    5.3851    3.6759    0.0000 C   0  0  0  0  0  0  0  0  0  0  0  0
    4.0484    2.9953    0.0000 C   0  0  0  0  0  0  0  0  0  0  0  0
    3.9694    1.4974    0.0000 C   0  0  0  0  0  0  0  0  0  0  0  0
    5.2272    0.6800    0.0000 C   0  0  0  0  0  0  0  0  0  0  0  0
    6.5639    1.3606    0.0000 C   0  0  0  0  0  0  0  0  0  0  0  0
    6.6429    2.8585    0.0000 C   0  0  0  0  0  0  0  0  0  0  0  0
    5.1482   -0.8179    0.0000 C   0  0  0  0  0  0  0  0  0  0  0  0
    3.8115   -1.4985    0.0000 C   0  0  0  0  0  0  0  0  0  0  0  0
    3.7325   -2.9964    0.0000 C   0  0  0  0  0  0  0  0  0  0  0  0
    4.9902   -3.8137    0.0000 N   0  0  0  0  0  0  0  0  0  0  0  0
    6.3270   -3.1332    0.0000 C   0  0  0  0  0  0  0  0  0  0  0  0
    6.4059   -1.6353    0.0000 N   0  0  0  0  0  0  0  0  0  0  0  0
    2.3958   -3.6769    0.0000 N   0  0  0  0  0  0  0  0  0  0  0  0
    1.1380   -2.8596    0.0000 C   0  0  0  0  0  0  0  0  0  0  0  0
    1.2170   -1.3617    0.0000 C   0  0  0  0  0  0  0  0  0  0  0  0
   -0.0408   -0.5443    0.0000 C   0  0  0  0  0  0  0  0  0  0  0  0
   -1.3775   -1.2249    0.0000 C   0  0  0  0  0  0  0  0  0  0  0  0
   -1.4565   -2.7228    0.0000 C   0  0  0  0  0  0  0  0  0  0  0  0
   -0.1987   -3.5402    0.0000 C   0  0  0  0  0  0  0  0  0  0  0  0
   -2.7932   -3.4034    0.0000 N   0  0  0  0  0  0  0  0  0  0  0  0
   -2.8722   -4.9013    0.0000 C   0  0  0  0  0  0  0  0  0  0  0  0
   -1.6144   -5.7186    0.0000 O   0  0  0  0  0  0  0  0  0  0  0  0
   -4.2089   -5.5818    0.0000 C   0  0  0  0  0  0  0  0  0  0  0  0
   -4.2879   -7.0798    0.0000 C   0  0  0  0  0  0  0  0  0  0  0  0
   -2.6352   -0.4075    0.0000 N   0  0  0  0  0  0  0  0  0  0  0  0
   -2.5562    1.0904    0.0000 C   0  0  0  0  0  0  0  0  0  0  0  0
   -3.8140    1.9078    0.0000 C   0  0  0  0  0  0  0  0  0  0  0  0
   -5.1507    1.2272    0.0000 C   0  0  0  0  0  0  0  0  0  0  0  0
   -5.2297   -0.2707    0.0000 C   0  0  0  0  0  0  0  0  0  0  0  0
   -3.9719   -1.0881    0.0000 C   0  0  0  0  0  0  0  0  0  0  0  0
   -6.4085    2.0446    0.0000 N   0  0  0  0  0  0  0  0  0  0  0  0
   -6.7199    3.5119    0.0000 C   0  0  0  0  0  0  0  0  0  0  0  0
   -8.1872    3.2005    0.0000 C   0  0  0  0  0  0  0  0  0  0  0  0
   -7.8758    1.7332    0.0000 C   0  0  0  0  0  0  0  0  0  0  0  0
   -9.4449    4.0178    0.0000 O   0  0  0  0  0  0  0  0  0  0  0  0
   -9.3659    5.5158    0.0000 C   0  0  0  0  0  0  0  0  0  0  0  0
    2.5537   -0.6811    0.0000 O   0  0  0  0  0  0  0  0  0  0  0  0
    2.6327    0.8168    0.0000 C   0  0  0  0  0  0  0  0  0  0  0  0
    2.9881    4.0563    0.0000 C   0  0  0  0  0  0  0  0  0  0  0  0
    3.6695    5.3926    0.0000 N   0  0  0  0  0  0  0  0  0  0  0  0
  1  2  1  0
  2  3  1  0
  3  4  2  0
  4  5  1  0
  5  6  2  0
  6  7  1  0
  7  8  2  0
  6  9  1  0
  9 10  2  0
 10 11  1  0
 11 12  2  0
 12 13  1  0
 13 14  2  0
 11 15  1  0
 15 16  1  0
 16 17  2  0
 17 18  1  0
 18 19  2  0
 19 20  1  0
 20 21  2  0
 20 22  1  0
 22 23  1  0
 23 24  2  0
 23 25  1  0
 25 26  2  0
 19 27  1  0
 27 28  1  0
 28 29  1  0
 29 30  1  0
 30 31  1  0
 31 32  1  0
 30 33  1  0
 33 34  1  0
 34 35  1  0
 35 36  1  0
 35 37  1  0
 37 38  1  0
 17 39  1  0
 39 40  1  0
  4 41  1  0
 41 42  2  0
 42  2  1  0
  8  3  1  0
 14  9  1  0
 21 16  1  0
 32 27  1  0
 36 33  1  0
M  END
>  <BrandName>  (53) 


>  <Applicants>  (53) 


>  <CHEMBL_ID>  (53) 
nan

>  <Canonical_Smiles>  (53) 
CN1C2=C(C=C(C=C2)C3=CC(=NC=N3)NC4=C(C=C(C(=C4)NC(=O)C=C)N5CCC(CC5)N6CC(C6)OC)OC)C=N1

>  <Chirality>  (53) 
nan

>  <First_Approval>  (53) 
nan

>  <Phase>  (53) 
2.0

>  <SC_Patent>  (53) 
nan

>  <Synonyms>  (53) 
|ANDAMERTINIB

>  <Withdrawn>  (53) 
{''}

>  <Indications>  (53) 
nan

>  <Type>  (53) 
nan

>  <targets_id>  (53) 
nan

>  <Inchi>  (53) 
InChI=1S/C31H36N8O3/c1-5-31(40)36-25-13-26(29(42-4)15-28(25)38-10-8-22(9-11-38)39-17-23(18-39)41-3)35-30-14-24(32-19-33-30)20-6-7-27-21(12-20)16-34-37(27)2/h5-7,12-16,19,22-23H,1,8-11,17-18H2,2-4H3,(H,36,40)(H,32,33,35)

>  <stdInchikey>  (53) 
KKPCZGCBAIJCOU-UHFFFAOYSA-N

>  <csid>  (53) 
nan

>  <Links>  (53) 
|https://pubchem.ncbi.nlm.nih.gov/compound/146498390

>  <LinkName>  (53) 
|PubChem

>  <lig_pdb_ID>  (53) 


>  <pdb_IDs>  (53) 


>  <indicationDB>  (53) 


>  <uniprotId>  (53) 


>  <indicationG2P>  (53) 


>  <MW>  (53) 
568.3

>  <HBA>  (53) 
10

>  <HBD>  (53) 
2

>  <NRB>  (53) 
9

>  <TPSA>  (53) 
109.7

>  <LogP>  (53) 
4.2

>  <RoF>  (53) 
1

>  <Melting point>  (53) 
nan

>  <Targets>  (53) 
nan

>  <Kinase families>  (53) 
(*)

>  <FDA_approved>  (53) 


$$$$
Gilmelisib
     RDKit          2D

 37 40  0  0  0  0  0  0  0  0999 V2000
   -4.2396    6.1017    0.0000 C   0  0  0  0  0  0  0  0  0  0  0  0
   -4.4893    4.6226    0.0000 O   0  0  0  0  0  0  0  0  0  0  0  0
   -3.3332    3.6668    0.0000 C   0  0  0  0  0  0  0  0  0  0  0  0
   -1.9275    4.1901    0.0000 N   0  0  0  0  0  0  0  0  0  0  0  0
   -0.7714    3.2343    0.0000 C   0  0  0  0  0  0  0  0  0  0  0  0
   -1.0211    1.7553    0.0000 C   0  0  0  0  0  0  0  0  0  0  0  0
    0.1350    0.7995    0.0000 C   0  0  0  0  0  0  0  0  0  0  0  0
   -0.1147   -0.6796    0.0000 C   0  0  0  0  0  0  0  0  0  0  0  0
    1.0413   -1.6354    0.0000 C   0  0  0  0  0  0  0  0  0  0  0  0
    2.4471   -1.1121    0.0000 C   0  0  0  0  0  0  0  0  0  0  0  0
    3.6032   -2.0678    0.0000 N   0  0  0  0  0  0  0  0  0  0  0  0
    5.0089   -1.5445    0.0000 C   0  0  0  0  0  0  0  0  0  0  0  0
    5.2586   -0.0655    0.0000 C   0  0  0  0  0  0  0  0  0  0  0  0
    6.6644    0.4578    0.0000 O   0  0  0  0  0  0  0  0  0  0  0  0
    7.8205   -0.4980    0.0000 C   0  0  0  0  0  0  0  0  0  0  0  0
    9.2262    0.0253    0.0000 C   0  0  0  0  0  0  0  0  0  0  0  0
   10.3823   -0.9304    0.0000 N   0  0  0  0  0  0  0  0  0  0  0  0
   11.7880   -0.4071    0.0000 C   0  0  0  0  0  0  0  0  0  0  0  0
   10.1326   -2.4095    0.0000 C   0  0  0  0  0  0  0  0  0  0  0  0
    4.1026    0.8903    0.0000 C   0  0  0  0  0  0  0  0  0  0  0  0
    4.3523    2.3694    0.0000 O   0  0  0  0  0  0  0  0  0  0  0  0
    2.6968    0.3670    0.0000 N   0  0  0  0  0  0  0  0  0  0  0  0
    1.5407    1.3228    0.0000 C   0  0  0  0  0  0  0  0  0  0  0  0
   -2.4269    1.2320    0.0000 C   0  0  0  0  0  0  0  0  0  0  0  0
   -3.5829    2.1878    0.0000 C   0  0  0  0  0  0  0  0  0  0  0  0
   -4.9887    1.6645    0.0000 N   0  0  0  0  0  0  0  0  0  0  0  0
   -5.2384    0.1854    0.0000 S   0  0  0  0  0  0  0  0  0  0  0  0
   -3.7593   -0.0643    0.0000 O   0  0  0  0  0  0  0  0  0  0  0  0
   -6.7175    0.4351    0.0000 O   0  0  0  0  0  0  0  0  0  0  0  0
   -5.4881   -1.2937    0.0000 C   0  0  0  0  0  0  0  0  0  0  0  0
   -6.8938   -1.8170    0.0000 C   0  0  0  0  0  0  0  0  0  0  0  0
   -7.1435   -3.2960    0.0000 C   0  0  0  0  0  0  0  0  0  0  0  0
   -5.9875   -4.2518    0.0000 C   0  0  0  0  0  0  0  0  0  0  0  0
   -6.2372   -5.7309    0.0000 F   0  0  0  0  0  0  0  0  0  0  0  0
   -4.5817   -3.7285    0.0000 C   0  0  0  0  0  0  0  0  0  0  0  0
   -4.3320   -2.2495    0.0000 C   0  0  0  0  0  0  0  0  0  0  0  0
   -2.9262   -1.7262    0.0000 Cl  0  0  0  0  0  0  0  0  0  0  0  0
  1  2  1  0
  2  3  1  0
  3  4  2  0
  4  5  1  0
  5  6  2  0
  6  7  1  0
  7  8  1  0
  8  9  2  0
  9 10  1  0
 10 11  2  0
 11 12  1  0
 12 13  2  0
 13 14  1  0
 14 15  1  0
 15 16  1  0
 16 17  1  0
 17 18  1  0
 17 19  1  0
 13 20  1  0
 20 21  2  0
 20 22  1  0
 22 23  1  0
  6 24  1  0
 24 25  2  0
 25 26  1  0
 26 27  1  0
 27 28  2  0
 27 29  2  0
 27 30  1  0
 30 31  2  0
 31 32  1  0
 32 33  2  0
 33 34  1  0
 33 35  1  0
 35 36  2  0
 36 37  1  0
 25  3  1  0
 36 30  1  0
 23  7  2  0
 22 10  1  0
M  END
>  <BrandName>  (54) 


>  <Applicants>  (54) 
Medshine Discovery Inc

>  <CHEMBL_ID>  (54) 
CHEMBL5095067

>  <Canonical_Smiles>  (54) 
COc1ncc(-c2ccc3ncc(OCCN(C)C)c(=O)n3c2)cc1NS(=O)(=O)c1ccc(F)cc1Cl

>  <Chirality>  (54) 
Achiral Molecule

>  <First_Approval>  (54) 
nan

>  <Phase>  (54) 
2.0

>  <SC_Patent>  (54) 
nan

>  <Synonyms>  (54) 
GILMELISIB

>  <Withdrawn>  (54) 
nan

>  <Indications>  (54) 
nan

>  <Type>  (54) 
nan

>  <targets_id>  (54) 
nan

>  <Inchi>  (54) 
InChI=1S/C24H23ClFN5O5S/c1-30(2)8-9-36-20-13-27-22-7-4-15(14-31(22)24(20)32)16-10-19(23(35-3)28-12-16)29-37(33,34)21-6-5-17(26)11-18(21)25/h4-7,10-14,29H,8-9H2,1-3H3

>  <stdInchikey>  (54) 
BXKBZQAZYOZHJY-UHFFFAOYSA-N

>  <csid>  (54) 
115007130

>  <Links>  (54) 
|http://www.chemspider.com/Chemical-Structure.115007130.html|https://www.ebi.ac.uk/chembldb/compound/inspect/CHEMBL5095067|https://pubchem.ncbi.nlm.nih.gov/compound/118612873

>  <LinkName>  (54) 
|ChemSpider|ChEMBL|PubChem

>  <lig_pdb_ID>  (54) 


>  <pdb_IDs>  (54) 


>  <indicationDB>  (54) 


>  <uniprotId>  (54) 


>  <indicationG2P>  (54) 


>  <MW>  (54) 
547.1

>  <HBA>  (54) 
9

>  <HBD>  (54) 
1

>  <NRB>  (54) 
9

>  <TPSA>  (54) 
115.1

>  <LogP>  (54) 
3.3

>  <RoF>  (54) 
1

>  <Melting point>  (54) 
nan

>  <Targets>  (54) 
nan

>  <Kinase families>  (54) 


>  <FDA_approved>  (54) 


$$$$
Avutometinib
     RDKit          2D

 33 36  0  0  0  0  0  0  0  0999 V2000
   -9.3484    2.0065    0.0000 C   0  0  0  0  0  0  0  0  0  0  0  0
   -9.3967    0.5073    0.0000 N   0  0  0  0  0  0  0  0  0  0  0  0
   -8.1225   -0.2841    0.0000 S   0  0  0  0  0  0  0  0  0  0  0  0
   -7.3311    0.9901    0.0000 O   0  0  0  0  0  0  0  0  0  0  0  0
   -8.9139   -1.5583    0.0000 O   0  0  0  0  0  0  0  0  0  0  0  0
   -6.8483   -1.0755    0.0000 N   0  0  0  0  0  0  0  0  0  0  0  0
   -5.5258   -0.3678    0.0000 C   0  0  0  0  0  0  0  0  0  0  0  0
   -5.4775    1.1315    0.0000 N   0  0  0  0  0  0  0  0  0  0  0  0
   -4.1550    1.8393    0.0000 C   0  0  0  0  0  0  0  0  0  0  0  0
   -2.8808    1.0478    0.0000 C   0  0  0  0  0  0  0  0  0  0  0  0
   -2.9290   -0.4514    0.0000 C   0  0  0  0  0  0  0  0  0  0  0  0
   -1.6548   -1.2428    0.0000 C   0  0  0  0  0  0  0  0  0  0  0  0
   -0.3323   -0.5350    0.0000 C   0  0  0  0  0  0  0  0  0  0  0  0
    0.9419   -1.3265    0.0000 C   0  0  0  0  0  0  0  0  0  0  0  0
    0.8936   -2.8257    0.0000 C   0  0  0  0  0  0  0  0  0  0  0  0
    2.2644   -0.6187    0.0000 C   0  0  0  0  0  0  0  0  0  0  0  0
    3.5386   -1.4101    0.0000 C   0  0  0  0  0  0  0  0  0  0  0  0
    4.8611   -0.7023    0.0000 C   0  0  0  0  0  0  0  0  0  0  0  0
    4.9094    0.7969    0.0000 C   0  0  0  0  0  0  0  0  0  0  0  0
    6.2319    1.5047    0.0000 O   0  0  0  0  0  0  0  0  0  0  0  0
    7.5062    0.7133    0.0000 C   0  0  0  0  0  0  0  0  0  0  0  0
    7.4579   -0.7860    0.0000 N   0  0  0  0  0  0  0  0  0  0  0  0
    8.7321   -1.5774    0.0000 C   0  0  0  0  0  0  0  0  0  0  0  0
   10.0546   -0.8696    0.0000 C   0  0  0  0  0  0  0  0  0  0  0  0
   10.1029    0.6296    0.0000 C   0  0  0  0  0  0  0  0  0  0  0  0
    8.8287    1.4211    0.0000 N   0  0  0  0  0  0  0  0  0  0  0  0
    3.6352    1.5883    0.0000 C   0  0  0  0  0  0  0  0  0  0  0  0
    2.3127    0.8805    0.0000 C   0  0  0  0  0  0  0  0  0  0  0  0
    1.0385    1.6720    0.0000 O   0  0  0  0  0  0  0  0  0  0  0  0
   -0.2840    0.9642    0.0000 C   0  0  0  0  0  0  0  0  0  0  0  0
   -1.5582    1.7556    0.0000 O   0  0  0  0  0  0  0  0  0  0  0  0
   -4.2516   -1.1592    0.0000 C   0  0  0  0  0  0  0  0  0  0  0  0
   -4.2998   -2.6584    0.0000 F   0  0  0  0  0  0  0  0  0  0  0  0
  1  2  1  0
  2  3  1  0
  3  4  2  0
  3  5  2  0
  3  6  1  0
  6  7  1  0
  7  8  2  0
  8  9  1  0
  9 10  2  0
 10 11  1  0
 11 12  1  0
 12 13  1  0
 13 14  2  0
 14 15  1  0
 14 16  1  0
 16 17  2  0
 17 18  1  0
 18 19  2  0
 19 20  1  0
 20 21  1  0
 21 22  2  0
 22 23  1  0
 23 24  2  0
 24 25  1  0
 25 26  2  0
 19 27  1  0
 27 28  2  0
 28 29  1  0
 29 30  1  0
 30 31  2  0
 11 32  2  0
 32 33  1  0
 32  7  1  0
 30 13  1  0
 28 16  1  0
 26 21  1  0
M  END
>  <BrandName>  (55) 


>  <Applicants>  (55) 
Verastem

>  <CHEMBL_ID>  (55) 
CHEMBL3264002

>  <Canonical_Smiles>  (55) 
CNS(=O)(=O)Nc1nccc(Cc2c(C)c3ccc(Oc4ncccn4)cc3oc2=O)c1F

>  <Chirality>  (55) 
Achiral Molecule

>  <First_Approval>  (55) 
nan

>  <Phase>  (55) 
2.0

>  <SC_Patent>  (55) 
nan

>  <Synonyms>  (55) 
AVUTOMETINIB | CH-5126766 | CH5126766 | CKI-27 | R-7304 | RG-7304 | RO 5126766 | RO-5126766 | VS-6766

>  <Withdrawn>  (55) 
{''}

>  <Indications>  (55) 
nan

>  <Type>  (55) 
nan

>  <targets_id>  (55) 
nan

>  <Inchi>  (55) 
InChI=1S/C21H18FN5O5S/c1-12-15-5-4-14(31-21-25-7-3-8-26-21)11-17(15)32-20(28)16(12)10-13-6-9-24-19(18(13)22)27-33(29,30)23-2/h3-9,11,23H,10H2,1-2H3,(H,24,27)

>  <stdInchikey>  (55) 
LMMJFBMMJUMSJS-UHFFFAOYSA-N

>  <csid>  (55) 
17623621

>  <Links>  (55) 
|http://www.chemspider.com/Chemical-Structure.17623621.html|https://www.ebi.ac.uk/chembldb/compound/inspect/CHEMBL3264002|https://pubchem.ncbi.nlm.nih.gov/compound/16719221|https://go.drugbank.com/drugs/DB15254|https://www.rcsb.org/ligand/CHU|https://www.ebi.ac.uk/pdbe-srv/pdbechem/chemicalCompound/show/CHU|https://zinc15.docking.org/substances/ZINC000068247388|https://precision.fda.gov/uniisearch/srs/unii/D0D4252V97|https://www.bindingdb.org/bind/chemsearch/marvin/MolStructure.jsp?monomerid=50010462

>  <LinkName>  (55) 
|ChemSpider|ChEMBL|PubChem|DrugBank|RCSB|PDBe|ZINC|FDA SRS|BindingDB

>  <lig_pdb_ID>  (55) 
CHU

>  <pdb_IDs>  (55) 
3wig 7m0z 7mfd

>  <indicationDB>  (55) 


>  <uniprotId>  (55) 


>  <indicationG2P>  (55) 


>  <MW>  (55) 
471.1

>  <HBA>  (55) 
8

>  <HBD>  (55) 
2

>  <NRB>  (55) 
7

>  <TPSA>  (55) 
136.3

>  <LogP>  (55) 
2.7

>  <RoF>  (55) 
0

>  <Melting point>  (55) 
nan

>  <Targets>  (55) 
nan

>  <Kinase families>  (55) 


>  <FDA_approved>  (55) 


$$$$
Azenosertib
     RDKit          2D

 39 44  0  0  0  0  0  0  0  0999 V2000
   -6.3256   -4.6144    0.0000 C   0  0  0  0  0  0  0  0  0  0  0  0
   -4.9166   -4.1000    0.0000 C   0  0  0  0  0  0  0  0  0  0  0  0
   -4.6575   -2.6225    0.0000 C   0  0  0  0  0  0  0  0  0  0  0  0
   -3.2485   -2.1081    0.0000 N   0  0  0  0  0  0  0  0  0  0  0  0
   -2.0041   -2.9457    0.0000 C   0  0  0  0  0  0  0  0  0  0  0  0
   -1.9503   -4.4448    0.0000 O   0  0  0  0  0  0  0  0  0  0  0  0
   -0.8230   -2.0211    0.0000 C   0  0  0  0  0  0  0  0  0  0  0  0
    0.6545   -2.2801    0.0000 C   0  0  0  0  0  0  0  0  0  0  0  0
    1.6175   -1.1302    0.0000 N   0  0  0  0  0  0  0  0  0  0  0  0
    1.1032    0.2789    0.0000 C   0  0  0  0  0  0  0  0  0  0  0  0
    2.0662    1.4289    0.0000 N   0  0  0  0  0  0  0  0  0  0  0  0
    3.5437    1.1698    0.0000 C   0  0  0  0  0  0  0  0  0  0  0  0
    4.0581   -0.2392    0.0000 C   0  0  0  0  0  0  0  0  0  0  0  0
    5.5355   -0.4983    0.0000 C   0  0  0  0  0  0  0  0  0  0  0  0
    6.4986    0.6517    0.0000 C   0  0  0  0  0  0  0  0  0  0  0  0
    7.9761    0.3927    0.0000 N   0  0  0  0  0  0  0  0  0  0  0  0
    8.4905   -1.0164    0.0000 C   0  0  0  0  0  0  0  0  0  0  0  0
    9.9679   -1.2754    0.0000 C   0  0  0  0  0  0  0  0  0  0  0  0
   10.9310   -0.1254    0.0000 N   0  0  0  0  0  0  0  0  0  0  0  0
   12.4085   -0.3845    0.0000 C   0  0  0  0  0  0  0  0  0  0  0  0
   10.4166    1.2836    0.0000 C   0  0  0  0  0  0  0  0  0  0  0  0
    8.9392    1.5427    0.0000 C   0  0  0  0  0  0  0  0  0  0  0  0
    5.9842    2.0608    0.0000 C   0  0  0  0  0  0  0  0  0  0  0  0
    4.5068    2.3198    0.0000 C   0  0  0  0  0  0  0  0  0  0  0  0
   -0.3743    0.5379    0.0000 N   0  0  0  0  0  0  0  0  0  0  0  0
   -1.3374   -0.6120    0.0000 C   0  0  0  0  0  0  0  0  0  0  0  0
   -2.8364   -0.6658    0.0000 N   0  0  0  0  0  0  0  0  0  0  0  0
   -3.7610    0.5153    0.0000 C   0  0  0  0  0  0  0  0  0  0  0  0
   -3.2005    1.9066    0.0000 C   0  0  0  0  0  0  0  0  0  0  0  0
   -4.1251    3.0877    0.0000 C   0  0  0  0  0  0  0  0  0  0  0  0
   -5.6103    2.8775    0.0000 C   0  0  0  0  0  0  0  0  0  0  0  0
   -6.1709    1.4862    0.0000 C   0  0  0  0  0  0  0  0  0  0  0  0
   -5.2462    0.3051    0.0000 N   0  0  0  0  0  0  0  0  0  0  0  0
   -7.6673    1.5894    0.0000 C   0  0  0  0  0  0  0  0  0  0  0  0
   -9.1525    1.3792    0.0000 O   0  0  0  0  0  0  0  0  0  0  0  0
   -7.6135    0.0904    0.0000 C   0  0  0  0  0  0  0  0  0  0  0  0
   -8.8848   -0.7057    0.0000 C   0  0  0  0  0  0  0  0  0  0  0  0
   -8.0316    3.0445    0.0000 C   0  0  0  0  0  0  0  0  0  0  0  0
   -6.7603    3.8406    0.0000 C   0  0  0  0  0  0  0  0  0  0  0  0
  1  2  2  0
  2  3  1  0
  3  4  1  0
  4  5  1  0
  5  6  2  0
  5  7  1  0
  7  8  2  0
  8  9  1  0
  9 10  2  0
 10 11  1  0
 11 12  1  0
 12 13  2  0
 13 14  1  0
 14 15  2  0
 15 16  1  0
 16 17  1  0
 17 18  1  0
 18 19  1  0
 19 20  1  0
 19 21  1  0
 21 22  1  0
 15 23  1  0
 23 24  2  0
 10 25  1  0
 25 26  2  0
 26 27  1  0
 27 28  1  0
 28 29  2  0
 29 30  1  0
 30 31  2  0
 31 32  1  0
 32 33  2  0
 32 34  1  0
 34 35  1  6
 34 36  1  0
 36 37  1  0
 34 38  1  0
 38 39  1  0
 27  4  1  0
 33 28  1  0
 26  7  1  0
 39 31  1  0
 24 12  1  0
 22 16  1  0
M  END
>  <BrandName>  (56) 


>  <Applicants>  (56) 
Zentalis Pharmaceuticals

>  <CHEMBL_ID>  (56) 
CHEMBL5095036

>  <Canonical_Smiles>  (56) 
C=CCn1c(=O)c2cnc(Nc3ccc(N4CCN(C)CC4)cc3)nc2n1-c1ccc2c(n1)[C@@](O)(CC)CC2

>  <Chirality>  (56) 
Single Stereoisomer

>  <First_Approval>  (56) 
nan

>  <Phase>  (56) 
2.0

>  <SC_Patent>  (56) 
nan

>  <Synonyms>  (56) 
AZENOSERTIB | ZN-C3

>  <Withdrawn>  (56) 
{''}

>  <Indications>  (56) 
nan

>  <Type>  (56) 
nan

>  <targets_id>  (56) 
nan

>  <Inchi>  (56) 
InChI=1S/C29H34N8O2/c1-4-14-36-27(38)23-19-30-28(31-21-7-9-22(10-8-21)35-17-15-34(3)16-18-35)33-26(23)37(36)24-11-6-20-12-13-29(39,5-2)25(20)32-24/h4,6-11,19,39H,1,5,12-18H2,2-3H3,(H,30,31,33)/t29-/m1/s1

>  <stdInchikey>  (56) 
OXTSYWDBUVRXFF-GDLZYMKVSA-N

>  <csid>  (56) 
114826635

>  <Links>  (56) 
|http://www.chemspider.com/Chemical-Structure.114826635.html|https://www.ebi.ac.uk/chembldb/compound/inspect/CHEMBL5095036|https://pubchem.ncbi.nlm.nih.gov/compound/139467635|https://go.drugbank.com/drugs/DB18028|https://www.rcsb.org/ligand/05J|https://www.ebi.ac.uk/pdbe-srv/pdbechem/chemicalCompound/show/05J|https://precision.fda.gov/uniisearch/srs/unii/9J13XU96Z1

>  <LinkName>  (56) 
|ChemSpider|ChEMBL|PubChem|DrugBank|RCSB|PDBe|FDA SRS

>  <lig_pdb_ID>  (56) 
05J

>  <pdb_IDs>  (56) 
7n3u

>  <indicationDB>  (56) 


>  <uniprotId>  (56) 


>  <indicationG2P>  (56) 


>  <MW>  (56) 
526.3

>  <HBA>  (56) 
10

>  <HBD>  (56) 
2

>  <NRB>  (56) 
7

>  <TPSA>  (56) 
104.3

>  <LogP>  (56) 
3.2

>  <RoF>  (56) 
1

>  <Melting point>  (56) 
nan

>  <Targets>  (56) 
nan

>  <Kinase families>  (56) 


>  <FDA_approved>  (56) 


$$$$
Vodobatinib
     RDKit          2D

 33 36  0  0  0  0  0  0  0  0999 V2000
    2.7150   -5.0226    0.0000 C   0  0  0  0  0  0  0  0  0  0  0  0
    1.3527   -4.3946    0.0000 C   0  0  0  0  0  0  0  0  0  0  0  0
    0.1278   -5.2604    0.0000 C   0  0  0  0  0  0  0  0  0  0  0  0
   -1.2344   -4.6325    0.0000 C   0  0  0  0  0  0  0  0  0  0  0  0
   -1.3717   -3.1388    0.0000 C   0  0  0  0  0  0  0  0  0  0  0  0
   -2.7340   -2.5108    0.0000 C   0  0  0  0  0  0  0  0  0  0  0  0
   -3.9589   -3.3766    0.0000 O   0  0  0  0  0  0  0  0  0  0  0  0
   -2.8713   -1.0171    0.0000 N   0  0  0  0  0  0  0  0  0  0  0  0
   -4.2335   -0.3892    0.0000 N   0  0  0  0  0  0  0  0  0  0  0  0
   -4.3709    1.1045    0.0000 C   0  0  0  0  0  0  0  0  0  0  0  0
   -3.1459    1.9703    0.0000 O   0  0  0  0  0  0  0  0  0  0  0  0
   -5.7331    1.7324    0.0000 C   0  0  0  0  0  0  0  0  0  0  0  0
   -5.8704    3.2261    0.0000 C   0  0  0  0  0  0  0  0  0  0  0  0
   -4.6455    4.0919    0.0000 C   0  0  0  0  0  0  0  0  0  0  0  0
   -7.2327    3.8541    0.0000 C   0  0  0  0  0  0  0  0  0  0  0  0
   -8.4576    2.9883    0.0000 C   0  0  0  0  0  0  0  0  0  0  0  0
   -8.3203    1.4946    0.0000 C   0  0  0  0  0  0  0  0  0  0  0  0
   -6.9580    0.8667    0.0000 C   0  0  0  0  0  0  0  0  0  0  0  0
   -6.8207   -0.6270    0.0000 Cl  0  0  0  0  0  0  0  0  0  0  0  0
   -0.1468   -2.2730    0.0000 C   0  0  0  0  0  0  0  0  0  0  0  0
    1.2154   -2.9009    0.0000 C   0  0  0  0  0  0  0  0  0  0  0  0
    2.4403   -2.0351    0.0000 C   0  0  0  0  0  0  0  0  0  0  0  0
    3.6653   -1.1694    0.0000 C   0  0  0  0  0  0  0  0  0  0  0  0
    4.8902   -0.3036    0.0000 C   0  0  0  0  0  0  0  0  0  0  0  0
    6.2524   -0.9315    0.0000 C   0  0  0  0  0  0  0  0  0  0  0  0
    7.4774   -0.0658    0.0000 N   0  0  0  0  0  0  0  0  0  0  0  0
    7.3400    1.4279    0.0000 C   0  0  0  0  0  0  0  0  0  0  0  0
    8.5650    2.2937    0.0000 C   0  0  0  0  0  0  0  0  0  0  0  0
    8.4277    3.7874    0.0000 C   0  0  0  0  0  0  0  0  0  0  0  0
    7.0654    4.4153    0.0000 C   0  0  0  0  0  0  0  0  0  0  0  0
    5.8405    3.5496    0.0000 C   0  0  0  0  0  0  0  0  0  0  0  0
    5.9778    2.0559    0.0000 C   0  0  0  0  0  0  0  0  0  0  0  0
    4.7529    1.1901    0.0000 C   0  0  0  0  0  0  0  0  0  0  0  0
  1  2  1  0
  2  3  2  0
  3  4  1  0
  4  5  2  0
  5  6  1  0
  6  7  2  0
  6  8  1  0
  8  9  1  0
  9 10  1  0
 10 11  2  0
 10 12  1  0
 12 13  2  0
 13 14  1  0
 13 15  1  0
 15 16  2  0
 16 17  1  0
 17 18  2  0
 18 19  1  0
  5 20  1  0
 20 21  2  0
 21 22  1  0
 22 23  3  0
 23 24  1  0
 24 25  2  0
 25 26  1  0
 26 27  2  0
 27 28  1  0
 28 29  2  0
 29 30  1  0
 30 31  2  0
 31 32  1  0
 32 33  2  0
 21  2  1  0
 33 24  1  0
 18 12  1  0
 32 27  1  0
M  END
>  <BrandName>  (57) 


>  <Applicants>  (57) 
Sun Pharma Advanced Research Company

>  <CHEMBL_ID>  (57) 
CHEMBL4130229

>  <Canonical_Smiles>  (57) 
Cc1ccc(C(=O)NNC(=O)c2c(C)cccc2Cl)cc1C#Cc1cnc2ccccc2c1

>  <Chirality>  (57) 
Achiral Molecule

>  <First_Approval>  (57) 
nan

>  <Phase>  (57) 
2.0

>  <SC_Patent>  (57) 
nan

>  <Synonyms>  (57) 
K-0706 | K0706 | SCO-088 | VODOBATINIB

>  <Withdrawn>  (57) 
nan

>  <Indications>  (57) 
nan

>  <Type>  (57) 
nan

>  <targets_id>  (57) 
nan

>  <Inchi>  (57) 
InChI=1S/C27H20ClN3O2/c1-17-10-12-22(26(32)30-31-27(33)25-18(2)6-5-8-23(25)28)15-20(17)13-11-19-14-21-7-3-4-9-24(21)29-16-19/h3-10,12,14-16H,1-2H3,(H,30,32)(H,31,33)

>  <stdInchikey>  (57) 
ZQOBVMHBVWNVBG-UHFFFAOYSA-N

>  <csid>  (57) 
81367338

>  <Links>  (57) 
|http://www.chemspider.com/Chemical-Structure.81367338.html|https://www.ebi.ac.uk/chembldb/compound/inspect/CHEMBL4130229|https://pubchem.ncbi.nlm.nih.gov/compound/89884852|https://go.drugbank.com/drugs/DB17141|https://www.guidetopharmacology.org/GRAC/LigandDisplayForward?11191|https://precision.fda.gov/uniisearch/srs/unii/N8Q12KU2SW

>  <LinkName>  (57) 
|ChemSpider|ChEMBL|PubChem|DrugBank|Guide to Pharmacology|FDA SRS

>  <lig_pdb_ID>  (57) 


>  <pdb_IDs>  (57) 


>  <indicationDB>  (57) 


>  <uniprotId>  (57) 


>  <indicationG2P>  (57) 
None

>  <MW>  (57) 
453.1

>  <HBA>  (57) 
3

>  <HBD>  (57) 
2

>  <NRB>  (57) 
2

>  <TPSA>  (57) 
71.1

>  <LogP>  (57) 
5.0

>  <RoF>  (57) 
0

>  <Melting point>  (57) 
nan

>  <Targets>  (57) 
nan

>  <Kinase families>  (57) 


>  <FDA_approved>  (57) 


$$$$
Amdizalisib
     RDKit          2D

 28 31  0  0  0  0  0  0  0  0999 V2000
    0.2004   -2.9960    0.0000 C   0  0  0  0  0  0  0  0  0  0  0  0
   -0.0512   -1.5172    0.0000 C   0  0  0  0  0  0  0  0  0  0  0  0
    1.1037   -0.5600    0.0000 N   0  0  0  0  0  0  0  0  0  0  0  0
    2.5101   -1.0815    0.0000 C   0  0  0  0  0  0  0  0  0  0  0  0
    2.7617   -2.5602    0.0000 N   0  0  0  0  0  0  0  0  0  0  0  0
    4.1681   -3.0817    0.0000 C   0  0  0  0  0  0  0  0  0  0  0  0
    5.3230   -2.1245    0.0000 N   0  0  0  0  0  0  0  0  0  0  0  0
    5.0714   -0.6457    0.0000 C   0  0  0  0  0  0  0  0  0  0  0  0
    6.2262    0.3115    0.0000 N   0  0  0  0  0  0  0  0  0  0  0  0
    3.6650   -0.1242    0.0000 C   0  0  0  0  0  0  0  0  0  0  0  0
    3.4134    1.3545    0.0000 C   0  0  0  0  0  0  0  0  0  0  0  0
    3.1618    2.8333    0.0000 N   0  0  0  0  0  0  0  0  0  0  0  0
   -1.4576   -0.9957    0.0000 C   0  0  0  0  0  0  0  0  0  0  0  0
   -2.6124   -1.9530    0.0000 C   0  0  0  0  0  0  0  0  0  0  0  0
   -4.0189   -1.4314    0.0000 C   0  0  0  0  0  0  0  0  0  0  0  0
   -5.3475   -2.1277    0.0000 N   0  0  0  0  0  0  0  0  0  0  0  0
   -6.4202   -1.0792    0.0000 C   0  0  0  0  0  0  0  0  0  0  0  0
   -5.7545    0.2650    0.0000 C   0  0  0  0  0  0  0  0  0  0  0  0
   -6.4508    1.5937    0.0000 Cl  0  0  0  0  0  0  0  0  0  0  0  0
   -4.2704    0.0473    0.0000 N   0  0  0  0  0  0  0  0  0  0  0  0
   -3.1156    1.0046    0.0000 N   0  0  0  0  0  0  0  0  0  0  0  0
   -1.7092    0.4830    0.0000 C   0  0  0  0  0  0  0  0  0  0  0  0
   -0.5543    1.4403    0.0000 C   0  0  0  0  0  0  0  0  0  0  0  0
    0.8521    0.9188    0.0000 C   0  0  0  0  0  0  0  0  0  0  0  0
    2.0070    1.8760    0.0000 C   0  0  0  0  0  0  0  0  0  0  0  0
    1.7554    3.3548    0.0000 C   0  0  0  0  0  0  0  0  0  0  0  0
    0.3490    3.8763    0.0000 C   0  0  0  0  0  0  0  0  0  0  0  0
   -0.8059    2.9190    0.0000 C   0  0  0  0  0  0  0  0  0  0  0  0
  2  1  1  1
  2  3  1  0
  3  4  1  0
  4  5  2  0
  5  6  1  0
  6  7  2  0
  7  8  1  0
  8  9  1  0
  8 10  2  0
 10 11  1  0
 11 12  3  0
  2 13  1  0
 13 14  2  0
 14 15  1  0
 15 16  2  0
 16 17  1  0
 17 18  2  0
 18 19  1  0
 18 20  1  0
 20 21  1  0
 21 22  2  0
 22 23  1  0
 23 24  2  0
 24 25  1  0
 25 26  2  0
 26 27  1  0
 27 28  2  0
 10  4  1  0
 22 13  1  0
 28 23  1  0
 20 15  1  0
M  END
>  <BrandName>  (58) 


>  <Applicants>  (58) 
('Hutchmed',)

>  <CHEMBL_ID>  (58) 
CHEMBL4438249

>  <Canonical_Smiles>  (58) 
C[C@H](Nc1ncnc(N)c1C#N)c1cc2ncc(Cl)n2nc1-c1ccccc1

>  <Chirality>  (58) 
Unknown

>  <First_Approval>  (58) 
nan

>  <Phase>  (58) 
2.0

>  <SC_Patent>  (58) 
nan

>  <Synonyms>  (58) 
AMDIZALISIB | HMPL-689

>  <Withdrawn>  (58) 
nan

>  <Indications>  (58) 
nan

>  <Type>  (58) 
nan

>  <targets_id>  (58) 
nan

>  <Inchi>  (58) 
InChI=1S/C19H15ClN8/c1-11(26-19-14(8-21)18(22)24-10-25-19)13-7-16-23-9-15(20)28(16)27-17(13)12-5-3-2-4-6-12/h2-7,9-11H,1H3,(H3,22,24,25,26)/t11-/m0/s1

>  <stdInchikey>  (58) 
WKDBRCUUDXLTIM-NSHDSACASA-N

>  <csid>  (58) 
115009338

>  <Links>  (58) 
|http://www.chemspider.com/Chemical-Structure.115009338.html|https://www.ebi.ac.uk/chembldb/compound/inspect/CHEMBL4438249|https://pubchem.ncbi.nlm.nih.gov/compound/118981804|https://zinc15.docking.org/substances/ZINC000584641354|https://precision.fda.gov/uniisearch/srs/unii/F3YMY7783P|https://www.bindingdb.org/bind/chemsearch/marvin/MolStructure.jsp?monomerid=350391

>  <LinkName>  (58) 
|ChemSpider|ChEMBL|PubChem|ZINC|FDA SRS|BindingDB

>  <lig_pdb_ID>  (58) 


>  <pdb_IDs>  (58) 


>  <indicationDB>  (58) 


>  <uniprotId>  (58) 


>  <indicationG2P>  (58) 


>  <MW>  (58) 
390.1

>  <HBA>  (58) 
8

>  <HBD>  (58) 
2

>  <NRB>  (58) 
4

>  <TPSA>  (58) 
117.8

>  <LogP>  (58) 
3.5

>  <RoF>  (58) 
0

>  <Melting point>  (58) 
nan

>  <Targets>  (58) 
nan

>  <Kinase families>  (58) 


>  <FDA_approved>  (58) 


$$$$
Ropsacitinib
     RDKit          2D

 29 33  0  0  0  0  0  0  0  0999 V2000
    5.4666    5.0143    0.0000 C   0  0  0  0  0  0  0  0  0  0  0  0
    5.4536    3.5144    0.0000 N   0  0  0  0  0  0  0  0  0  0  0  0
    4.2325    2.6432    0.0000 C   0  0  0  0  0  0  0  0  0  0  0  0
    4.6837    1.2127    0.0000 C   0  0  0  0  0  0  0  0  0  0  0  0
    3.7916    0.0068    0.0000 C   0  0  0  0  0  0  0  0  0  0  0  0
    4.3898   -1.3687    0.0000 C   0  0  0  0  0  0  0  0  0  0  0  0
    3.4977   -2.5746    0.0000 N   0  0  0  0  0  0  0  0  0  0  0  0
    3.7969   -4.0445    0.0000 N   0  0  0  0  0  0  0  0  0  0  0  0
    2.4914   -4.7832    0.0000 C   0  0  0  0  0  0  0  0  0  0  0  0
    1.3854   -3.7699    0.0000 C   0  0  0  0  0  0  0  0  0  0  0  0
    2.0073   -2.4049    0.0000 C   0  0  0  0  0  0  0  0  0  0  0  0
    1.4091   -1.0294    0.0000 C   0  0  0  0  0  0  0  0  0  0  0  0
   -0.0813   -0.8597    0.0000 C   0  0  0  0  0  0  0  0  0  0  0  0
   -1.0946   -1.9657    0.0000 C   0  0  0  0  0  0  0  0  0  0  0  0
   -2.4596   -1.3438    0.0000 N   0  0  0  0  0  0  0  0  0  0  0  0
   -2.2899    0.1466    0.0000 N   0  0  0  0  0  0  0  0  0  0  0  0
   -3.3959    1.1598    0.0000 C   0  0  0  0  0  0  0  0  0  0  0  0
   -4.4092    0.0538    0.0000 C   0  0  0  0  0  0  0  0  0  0  0  0
   -5.8737    0.3784    0.0000 C   0  0  0  0  0  0  0  0  0  0  0  0
   -7.3732    0.3389    0.0000 N   0  0  0  0  0  0  0  0  0  0  0  0
   -4.4092    0.0538    0.0000 C   0  0  0  0  0  0  0  0  0  0  0  0
   -5.5152    1.0671    0.0000 C   0  0  0  0  0  0  0  0  0  0  0  0
   -7.0138    1.0016    0.0000 C   0  0  0  0  0  0  0  0  0  0  0  0
   -8.5123    0.9360    0.0000 N   0  0  0  0  0  0  0  0  0  0  0  0
   -4.5019    2.1731    0.0000 C   0  0  0  0  0  0  0  0  0  0  0  0
   -0.8201    0.4457    0.0000 C   0  0  0  0  0  0  0  0  0  0  0  0
    2.3012    0.1765    0.0000 N   0  0  0  0  0  0  0  0  0  0  0  0
    6.1836    1.1997    0.0000 C   0  0  0  0  0  0  0  0  0  0  0  0
    6.6595    2.6222    0.0000 N   0  0  0  0  0  0  0  0  0  0  0  0
  1  2  1  0
  2  3  1  0
  3  4  2  0
  4  5  1  0
  5  6  2  0
  6  7  1  0
  7  8  1  0
  8  9  2  0
  9 10  1  0
 10 11  2  0
 11 12  1  0
 12 13  1  0
 13 14  1  0
 14 15  2  0
 15 16  1  0
 16 17  1  0
 17 18  1  6
 18 19  1  0
 19 20  3  0
 17 21  1  0
 21 22  1  0
 22 23  1  1
 23 24  3  0
 22 25  1  0
 16 26  1  0
 12 27  2  0
  4 28  1  0
 28 29  2  0
 29  2  1  0
 27  5  1  0
 11  7  1  0
 26 13  2  0
 25 17  1  0
M  END
>  <BrandName>  (59) 


>  <Applicants>  (59) 
Pfizer

>  <CHEMBL_ID>  (59) 
CHEMBL4459585

>  <Canonical_Smiles>  (59) 
Cn1cc(-c2cn3nccc3c(-c3cnn([C@]4(CC#N)C[C@@H](C#N)C4)c3)n2)cn1

>  <Chirality>  (59) 
Achiral Molecule

>  <First_Approval>  (59) 
nan

>  <Phase>  (59) 
2.0

>  <SC_Patent>  (59) 
nan

>  <Synonyms>  (59) 
PF-06826647 | ROPSACITINIB

>  <Withdrawn>  (59) 
nan

>  <Indications>  (59) 
nan

>  <Type>  (59) 
nan

>  <targets_id>  (59) 
nan

>  <Inchi>  (59) 
InChI=1S/C20H17N9/c1-27-11-15(9-24-27)17-13-28-18(2-5-23-28)19(26-17)16-10-25-29(12-16)20(3-4-21)6-14(7-20)8-22/h2,5,9-14H,3,6-7H2,1H3/t14-,20-

>  <stdInchikey>  (59) 
XPLZTJWZDBFWDE-OYOVHJISSA-N

>  <csid>  (59) 
84492190

>  <Links>  (59) 
|http://www.chemspider.com/Chemical-Structure.84492190.html|https://www.ebi.ac.uk/chembldb/compound/inspect/CHEMBL4459585|https://go.drugbank.com/drugs/DB18709|https://www.rcsb.org/ligand/UWM|https://www.ebi.ac.uk/pdbe-srv/pdbechem/chemicalCompound/show/UWM|https://precision.fda.gov/uniisearch/srs/unii/HY5SOV7O0Q|https://www.bindingdb.org/bind/chemsearch/marvin/MolStructure.jsp?monomerid=305821

>  <LinkName>  (59) 
|ChemSpider|ChEMBL|DrugBank|RCSB|PDBe|FDA SRS|BindingDB

>  <lig_pdb_ID>  (59) 
UWM

>  <pdb_IDs>  (59) 
6x8g

>  <indicationDB>  (59) 


>  <uniprotId>  (59) 


>  <indicationG2P>  (59) 


>  <MW>  (59) 
383.2

>  <HBA>  (59) 
9

>  <HBD>  (59) 
0

>  <NRB>  (59) 
4

>  <TPSA>  (59) 
113.4

>  <LogP>  (59) 
2.5

>  <RoF>  (59) 
0

>  <Melting point>  (59) 
nan

>  <Targets>  (59) 
nan

>  <Kinase families>  (59) 


>  <FDA_approved>  (59) 


$$$$
Lirafugratinib
     RDKit          2D

 38 42  0  0  0  0  0  0  0  0999 V2000
   -6.2378    4.4778    0.0000 C   0  0  0  0  0  0  0  0  0  0  0  0
   -5.1132    5.4705    0.0000 C   0  0  0  0  0  0  0  0  0  0  0  0
   -5.4106    6.9407    0.0000 C   0  0  0  0  0  0  0  0  0  0  0  0
   -3.6913    4.9930    0.0000 C   0  0  0  0  0  0  0  0  0  0  0  0
   -2.5667    5.9856    0.0000 O   0  0  0  0  0  0  0  0  0  0  0  0
   -3.3939    3.5227    0.0000 N   0  0  0  0  0  0  0  0  0  0  0  0
   -1.9719    3.0452    0.0000 C   0  0  0  0  0  0  0  0  0  0  0  0
   -0.8474    4.0379    0.0000 C   0  0  0  0  0  0  0  0  0  0  0  0
    0.5746    3.5603    0.0000 C   0  0  0  0  0  0  0  0  0  0  0  0
    0.8720    2.0901    0.0000 C   0  0  0  0  0  0  0  0  0  0  0  0
    2.2939    1.6126    0.0000 C   0  0  0  0  0  0  0  0  0  0  0  0
    2.7434    0.1815    0.0000 C   0  0  0  0  0  0  0  0  0  0  0  0
    1.8498   -1.0233    0.0000 C   0  0  0  0  0  0  0  0  0  0  0  0
    0.3596   -0.8518    0.0000 C   0  0  0  0  0  0  0  0  0  0  0  0
   -0.5339   -2.0566    0.0000 C   0  0  0  0  0  0  0  0  0  0  0  0
    0.0626   -3.4329    0.0000 C   0  0  0  0  0  0  0  0  0  0  0  0
   -0.8309   -4.6377    0.0000 O   0  0  0  0  0  0  0  0  0  0  0  0
   -2.3211   -4.4662    0.0000 C   0  0  0  0  0  0  0  0  0  0  0  0
   -2.9177   -3.0899    0.0000 N   0  0  0  0  0  0  0  0  0  0  0  0
   -4.4079   -2.9185    0.0000 C   0  0  0  0  0  0  0  0  0  0  0  0
   -5.3014   -4.1233    0.0000 C   0  0  0  0  0  0  0  0  0  0  0  0
   -4.7049   -5.4995    0.0000 C   0  0  0  0  0  0  0  0  0  0  0  0
   -5.5984   -6.7043    0.0000 C   0  0  0  0  0  0  0  0  0  0  0  0
   -3.2147   -5.6710    0.0000 N   0  0  0  0  0  0  0  0  0  0  0  0
    1.5528   -3.6044    0.0000 C   0  0  0  0  0  0  0  0  0  0  0  0
    2.1494   -4.9806    0.0000 F   0  0  0  0  0  0  0  0  0  0  0  0
    2.4464   -2.3996    0.0000 C   0  0  0  0  0  0  0  0  0  0  0  0
    4.2433    0.1667    0.0000 C   0  0  0  0  0  0  0  0  0  0  0  0
    5.2360   -0.9578    0.0000 C   0  0  0  0  0  0  0  0  0  0  0  0
    4.7584   -2.3798    0.0000 N   0  0  0  0  0  0  0  0  0  0  0  0
    6.7062   -0.6604    0.0000 N   0  0  0  0  0  0  0  0  0  0  0  0
    7.1838    0.7615    0.0000 C   0  0  0  0  0  0  0  0  0  0  0  0
    6.1911    1.8861    0.0000 N   0  0  0  0  0  0  0  0  0  0  0  0
    4.7209    1.5887    0.0000 C   0  0  0  0  0  0  0  0  0  0  0  0
    3.5161    2.4822    0.0000 N   0  0  0  0  0  0  0  0  0  0  0  0
    3.5308    3.9822    0.0000 C   0  0  0  0  0  0  0  0  0  0  0  0
   -0.2526    1.0974    0.0000 C   0  0  0  0  0  0  0  0  0  0  0  0
   -1.6745    1.5750    0.0000 C   0  0  0  0  0  0  0  0  0  0  0  0
  1  2  2  0
  2  3  1  0
  2  4  1  0
  4  5  2  0
  4  6  1  0
  6  7  1  0
  7  8  2  0
  8  9  1  0
  9 10  2  0
 10 11  1  0
 11 12  2  0
 12 13  1  0
 13 14  2  0
 14 15  1  0
 15 16  2  0
 16 17  1  0
 17 18  1  0
 18 19  2  0
 19 20  1  0
 20 21  2  0
 21 22  1  0
 22 23  1  0
 22 24  2  0
 16 25  1  0
 25 26  1  0
 25 27  2  0
 12 28  1  0
 28 29  2  0
 29 30  1  0
 29 31  1  0
 31 32  2  0
 32 33  1  0
 33 34  2  0
 34 35  1  0
 35 36  1  0
 10 37  1  0
 37 38  2  0
 38  7  1  0
 35 11  1  0
 27 13  1  0
 34 28  1  0
 24 18  1  0
M  END
>  <BrandName>  (60) 


>  <Applicants>  (60) 
('Relay Therapeutics',)

>  <CHEMBL_ID>  (60) 
CHEMBL5314555

>  <Canonical_Smiles>  (60) 
C=C(C)C(=O)Nc1ccc(-c2c(-c3ccc(Oc4nccc(C)n4)c(F)c3)c3c(N)ncnc3n2C)cc1

>  <Chirality>  (60) 
Achiral Molecule

>  <First_Approval>  (60) 
nan

>  <Phase>  (60) 
2.0

>  <SC_Patent>  (60) 
nan

>  <Synonyms>  (60) 
LIRAFUGRATINIB | RLY 4008 | RLY-4008 | RLY4008

>  <Withdrawn>  (60) 
nan

>  <Indications>  (60) 
nan

>  <Type>  (60) 
nan

>  <targets_id>  (60) 
nan

>  <Inchi>  (60) 
InChI=1S/C28H24FN7O2/c1-15(2)27(37)35-19-8-5-17(6-9-19)24-22(23-25(30)32-14-33-26(23)36(24)4)18-7-10-21(20(29)13-18)38-28-31-12-11-16(3)34-28/h5-14H,1H2,2-4H3,(H,35,37)(H2,30,32,33)

>  <stdInchikey>  (60) 
XOQVZSSDIQQUGO-UHFFFAOYSA-N

>  <csid>  (60) 
115037102

>  <Links>  (60) 
|http://www.chemspider.com/Chemical-Structure.115037102.html|https://www.ebi.ac.uk/chembldb/compound/inspect/CHEMBL5314555|https://pubchem.ncbi.nlm.nih.gov/compound/155309155|https://go.drugbank.com/drugs/DB18300

>  <LinkName>  (60) 
|ChemSpider|ChEMBL|PubChem|DrugBank

>  <lig_pdb_ID>  (60) 


>  <pdb_IDs>  (60) 


>  <indicationDB>  (60) 


>  <uniprotId>  (60) 


>  <indicationG2P>  (60) 


>  <MW>  (60) 
509.2

>  <HBA>  (60) 
8

>  <HBD>  (60) 
2

>  <NRB>  (60) 
6

>  <TPSA>  (60) 
120.8

>  <LogP>  (60) 
5.4

>  <RoF>  (60) 
2

>  <Melting point>  (60) 
nan

>  <Targets>  (60) 
nan

>  <Kinase families>  (60) 


>  <FDA_approved>  (60) 


$$$$
Izencitinib
     RDKit          2D

 30 34  0  0  0  0  0  0  0  0999 V2000
   -5.9392   -3.1503    0.0000 C   0  0  0  0  0  0  0  0  0  0  0  0
   -4.4906   -2.7613    0.0000 C   0  0  0  0  0  0  0  0  0  0  0  0
   -3.3243   -3.7046    0.0000 C   0  0  0  0  0  0  0  0  0  0  0  0
   -2.0668   -2.8869    0.0000 C   0  0  0  0  0  0  0  0  0  0  0  0
   -0.6661   -3.4237    0.0000 N   0  0  0  0  0  0  0  0  0  0  0  0
    0.4991   -2.4791    0.0000 C   0  0  0  0  0  0  0  0  0  0  0  0
    1.8998   -3.0159    0.0000 C   0  0  0  0  0  0  0  0  0  0  0  0
    3.0650   -2.0713    0.0000 C   0  0  0  0  0  0  0  0  0  0  0  0
    4.4656   -2.6081    0.0000 N   0  0  0  0  0  0  0  0  0  0  0  0
    5.6308   -1.6634    0.0000 C   0  0  0  0  0  0  0  0  0  0  0  0
    5.3954   -0.1820    0.0000 C   0  0  0  0  0  0  0  0  0  0  0  0
    3.9947    0.3547    0.0000 C   0  0  0  0  0  0  0  0  0  0  0  0
    2.8295   -0.5899    0.0000 C   0  0  0  0  0  0  0  0  0  0  0  0
    1.4288   -0.0531    0.0000 C   0  0  0  0  0  0  0  0  0  0  0  0
    1.1934    1.4283    0.0000 N   0  0  0  0  0  0  0  0  0  0  0  0
   -0.2073    1.9651    0.0000 C   0  0  0  0  0  0  0  0  0  0  0  0
   -0.4428    3.4465    0.0000 C   0  0  0  0  0  0  0  0  0  0  0  0
   -1.8434    3.9833    0.0000 C   0  0  0  0  0  0  0  0  0  0  0  0
   -3.3414    4.0610    0.0000 C   0  0  0  0  0  0  0  0  0  0  0  0
   -3.8782    2.6603    0.0000 C   0  0  0  0  0  0  0  0  0  0  0  0
   -2.7120    1.7170    0.0000 C   0  0  0  0  0  0  0  0  0  0  0  0
   -1.3725    1.0205    0.0000 C   0  0  0  0  0  0  0  0  0  0  0  0
   -1.4544    2.5346    0.0000 N   0  0  0  0  0  0  0  0  0  0  0  0
   -0.0537    1.9978    0.0000 C   0  0  0  0  0  0  0  0  0  0  0  0
    1.1115    2.9424    0.0000 C   0  0  0  0  0  0  0  0  0  0  0  0
    2.5121    2.4057    0.0000 C   0  0  0  0  0  0  0  0  0  0  0  0
    3.9128    1.8689    0.0000 N   0  0  0  0  0  0  0  0  0  0  0  0
    0.2636   -0.9977    0.0000 N   0  0  0  0  0  0  0  0  0  0  0  0
   -2.4558   -1.4383    0.0000 N   0  0  0  0  0  0  0  0  0  0  0  0
   -3.9538   -1.3606    0.0000 N   0  0  0  0  0  0  0  0  0  0  0  0
  1  2  1  0
  2  3  2  0
  3  4  1  0
  4  5  1  0
  5  6  1  0
  6  7  2  0
  7  8  1  0
  8  9  2  0
  9 10  1  0
 10 11  2  0
 11 12  1  0
 12 13  2  0
 13 14  1  0
 14 15  1  0
 16 15  1  6
 16 17  1  0
 18 17  1  1
 18 19  1  0
 19 20  1  0
 21 20  1  1
 21 22  1  0
 21 23  1  0
 23 24  1  0
 24 25  1  0
 25 26  1  0
 26 27  3  0
 14 28  2  0
  4 29  2  0
 29 30  1  0
 30  2  1  0
 28  6  1  0
 13  8  1  0
 22 16  1  0
 23 18  1  0
M  END
>  <BrandName>  (61) 


>  <Applicants>  (61) 
Theravance Biopharma

>  <CHEMBL_ID>  (61) 
CHEMBL4650343

>  <Canonical_Smiles>  (61) 
Cc1cc(Nc2cc3ncccc3c(N[C@H]3C[C@@H]4CC[C@H](C3)N4CCC#N)n2)n[nH]1

>  <Chirality>  (61) 
Single Stereoisomer

>  <First_Approval>  (61) 
nan

>  <Phase>  (61) 
2.0

>  <SC_Patent>  (61) 
nan

>  <Synonyms>  (61) 
IZENCITINIB | TD-1473 | TD1473

>  <Withdrawn>  (61) 
nan

>  <Indications>  (61) 
nan

>  <Type>  (61) 
nan

>  <targets_id>  (61) 
nan

>  <Inchi>  (61) 
InChI=1S/C22H26N8/c1-14-10-21(29-28-14)26-20-13-19-18(4-2-8-24-19)22(27-20)25-15-11-16-5-6-17(12-15)30(16)9-3-7-23/h2,4,8,10,13,15-17H,3,5-6,9,11-12H2,1H3,(H3,25,26,27,28,29)/t15-,16-,17+

>  <stdInchikey>  (61) 
DADAEARVGOQWHV-OSYLJGHBSA-N

>  <csid>  (61) 
75536963

>  <Links>  (61) 
|http://www.chemspider.com/Chemical-Structure.75536963.html|https://www.ebi.ac.uk/chembldb/compound/inspect/CHEMBL4650343|https://go.drugbank.com/drugs/DB16660|https://precision.fda.gov/uniisearch/srs/unii/2ZT81PV5UM

>  <LinkName>  (61) 
|ChemSpider|ChEMBL|DrugBank|FDA SRS

>  <lig_pdb_ID>  (61) 


>  <pdb_IDs>  (61) 


>  <indicationDB>  (61) 


>  <uniprotId>  (61) 


>  <indicationG2P>  (61) 


>  <MW>  (61) 
402.2

>  <HBA>  (61) 
7

>  <HBD>  (61) 
3

>  <NRB>  (61) 
6

>  <TPSA>  (61) 
105.6

>  <LogP>  (61) 
3.7

>  <RoF>  (61) 
0

>  <Melting point>  (61) 
nan

>  <Targets>  (61) 
nan

>  <Kinase families>  (61) 


>  <FDA_approved>  (61) 


$$$$
Miransertib
     RDKit          2D

 33 38  0  0  0  0  0  0  0  0999 V2000
   -7.2537    1.6240    0.0000 C   0  0  0  0  0  0  0  0  0  0  0  0
   -5.8759    2.2171    0.0000 C   0  0  0  0  0  0  0  0  0  0  0  0
   -4.6734    1.3205    0.0000 C   0  0  0  0  0  0  0  0  0  0  0  0
   -4.8486   -0.1693    0.0000 C   0  0  0  0  0  0  0  0  0  0  0  0
   -6.2264   -0.7624    0.0000 C   0  0  0  0  0  0  0  0  0  0  0  0
   -7.4289    0.1342    0.0000 C   0  0  0  0  0  0  0  0  0  0  0  0
   -3.6461   -1.0659    0.0000 C   0  0  0  0  0  0  0  0  0  0  0  0
   -3.8213   -2.5556    0.0000 C   0  0  0  0  0  0  0  0  0  0  0  0
   -2.6188   -3.4522    0.0000 C   0  0  0  0  0  0  0  0  0  0  0  0
   -1.2410   -2.8591    0.0000 C   0  0  0  0  0  0  0  0  0  0  0  0
   -1.0658   -1.3693    0.0000 C   0  0  0  0  0  0  0  0  0  0  0  0
   -2.2683   -0.4727    0.0000 N   0  0  0  0  0  0  0  0  0  0  0  0
    0.4052   -1.0756    0.0000 N   0  0  0  0  0  0  0  0  0  0  0  0
    1.1391   -2.3838    0.0000 C   0  0  0  0  0  0  0  0  0  0  0  0
    0.1217   -3.4861    0.0000 N   0  0  0  0  0  0  0  0  0  0  0  0
    2.6288   -2.5590    0.0000 C   0  0  0  0  0  0  0  0  0  0  0  0
    3.5254   -1.3565    0.0000 C   0  0  0  0  0  0  0  0  0  0  0  0
    5.0151   -1.5317    0.0000 C   0  0  0  0  0  0  0  0  0  0  0  0
    5.6083   -2.9095    0.0000 C   0  0  0  0  0  0  0  0  0  0  0  0
    4.7116   -4.1120    0.0000 N   0  0  0  0  0  0  0  0  0  0  0  0
    3.2219   -3.9368    0.0000 C   0  0  0  0  0  0  0  0  0  0  0  0
    2.3253   -5.1393    0.0000 N   0  0  0  0  0  0  0  0  0  0  0  0
    1.0322    0.2870    0.0000 C   0  0  0  0  0  0  0  0  0  0  0  0
    2.5258    0.4254    0.0000 C   0  0  0  0  0  0  0  0  0  0  0  0
    3.1528    1.7881    0.0000 C   0  0  0  0  0  0  0  0  0  0  0  0
    2.2861    3.0124    0.0000 C   0  0  0  0  0  0  0  0  0  0  0  0
    0.7925    2.8741    0.0000 C   0  0  0  0  0  0  0  0  0  0  0  0
    0.1655    1.5114    0.0000 C   0  0  0  0  0  0  0  0  0  0  0  0
    2.9131    4.3751    0.0000 C   0  0  0  0  0  0  0  0  0  0  0  0
    1.5505    5.0021    0.0000 C   0  0  0  0  0  0  0  0  0  0  0  0
    2.1775    6.3647    0.0000 C   0  0  0  0  0  0  0  0  0  0  0  0
    3.5401    5.7377    0.0000 C   0  0  0  0  0  0  0  0  0  0  0  0
    2.1298    4.5231    0.0000 N   0  0  0  0  0  0  0  0  0  0  0  0
  1  2  2  0
  2  3  1  0
  3  4  2  0
  4  5  1  0
  5  6  2  0
  4  7  1  0
  7  8  2  0
  8  9  1  0
  9 10  2  0
 10 11  1  0
 11 12  2  0
 11 13  1  0
 13 14  1  0
 14 15  2  0
 14 16  1  0
 16 17  2  0
 17 18  1  0
 18 19  2  0
 19 20  1  0
 20 21  2  0
 21 22  1  0
 13 23  1  0
 23 24  2  0
 24 25  1  0
 25 26  2  0
 26 27  1  0
 27 28  2  0
 26 29  1  0
 29 30  1  0
 30 31  1  0
 31 32  1  0
 29 33  1  0
  6  1  1  0
 12  7  1  0
 15 10  1  0
 21 16  1  0
 28 23  1  0
 32 29  1  0
M  END
>  <BrandName>  (62) 


>  <Applicants>  (62) 
Merck

>  <CHEMBL_ID>  (62) 
CHEMBL4297188

>  <Canonical_Smiles>  (62) 
c1ccc(cc1)c2ccc3c(n2)n(c(n3)c4cccnc4N)c5ccc(cc5)C6(CCC6)N

>  <Chirality>  (62) 
Achiral Molecule

>  <First_Approval>  (62) 
nan

>  <Phase>  (62) 
2.0

>  <SC_Patent>  (62) 
nan

>  <Synonyms>  (62) 
ARQ 092 | ARQ 092 FREE BASE | ARQ-092 | ARQ092 | MIRANSERTIB

>  <Withdrawn>  (62) 
nan

>  <Indications>  (62) 
nan

>  <Type>  (62) 
nan

>  <targets_id>  (62) 
nan

>  <Inchi>  (62) 
InChI=1S/C27H24N6/c28-24-21(8-4-17-30-24)25-32-23-14-13-22(18-6-2-1-3-7-18)31-26(23)33(25)20-11-9-19(10-12-20)27(29)15-5-16-27/h1-4,6-14,17H,5,15-16,29H2,(H2,28,30)

>  <stdInchikey>  (62) 
HNFMVVHMKGFCMB-UHFFFAOYSA-N

>  <csid>  (62) 
57251282

>  <Links>  (62) 
|http://www.chemspider.com/Chemical-Structure.57251282.html|https://www.ebi.ac.uk/chembldb/compound/inspect/CHEMBL4297188|https://pubchem.ncbi.nlm.nih.gov/compound/53262401|https://go.drugbank.com/drugs/DB14982|https://www.rcsb.org/ligand/6S1|https://www.ebi.ac.uk/pdbe-srv/pdbechem/chemicalCompound/show/6S1|https://www.guidetopharmacology.org/GRAC/LigandDisplayForward?9429|https://zinc15.docking.org/substances/ZINC000072315647|https://precision.fda.gov/uniisearch/srs/unii/T1DQI1B52Y

>  <LinkName>  (62) 
|ChemSpider|ChEMBL|PubChem|DrugBank|RCSB|PDBe|Guide to Pharmacology|ZINC|FDA SRS

>  <lig_pdb_ID>  (62) 
6S1

>  <pdb_IDs>  (62) 
5kcv

>  <indicationDB>  (62) 


>  <uniprotId>  (62) 


>  <indicationG2P>  (62) 
None

>  <MW>  (62) 
432.2

>  <HBA>  (62) 
6

>  <HBD>  (62) 
2

>  <NRB>  (62) 
4

>  <TPSA>  (62) 
95.6

>  <LogP>  (62) 
5.1

>  <RoF>  (62) 
1

>  <Melting point>  (62) 
nan

>  <Targets>  (62) 
nan

>  <Kinase families>  (62) 


>  <FDA_approved>  (62) 


$$$$
Vorolanib
     RDKit          2D

 32 35  0  0  0  0  0  0  0  0999 V2000
    0.8589   -2.7586    0.0000 C   0  0  0  0  0  0  0  0  0  0  0  0
    0.8114   -1.2593    0.0000 C   0  0  0  0  0  0  0  0  0  0  0  0
    1.9964   -0.3396    0.0000 C   0  0  0  0  0  0  0  0  0  0  0  0
    1.4879    1.0716    0.0000 N   0  0  0  0  0  0  0  0  0  0  0  0
   -0.0113    1.0240    0.0000 C   0  0  0  0  0  0  0  0  0  0  0  0
   -0.4294   -0.4165    0.0000 C   0  0  0  0  0  0  0  0  0  0  0  0
   -1.8406   -0.9250    0.0000 C   0  0  0  0  0  0  0  0  0  0  0  0
   -2.1059   -2.4013    0.0000 O   0  0  0  0  0  0  0  0  0  0  0  0
   -2.9866    0.0429    0.0000 N   0  0  0  0  0  0  0  0  0  0  0  0
   -4.3977   -0.4656    0.0000 C   0  0  0  0  0  0  0  0  0  0  0  0
   -4.8159   -1.9061    0.0000 C   0  0  0  0  0  0  0  0  0  0  0  0
   -6.3151   -1.9536    0.0000 C   0  0  0  0  0  0  0  0  0  0  0  0
   -6.8236   -0.5424    0.0000 N   0  0  0  0  0  0  0  0  0  0  0  0
   -5.6386    0.3772    0.0000 C   0  0  0  0  0  0  0  0  0  0  0  0
   -8.2641   -0.1243    0.0000 C   0  0  0  0  0  0  0  0  0  0  0  0
   -9.3465   -1.1628    0.0000 O   0  0  0  0  0  0  0  0  0  0  0  0
   -8.6223    1.3323    0.0000 N   0  0  0  0  0  0  0  0  0  0  0  0
  -10.0629    1.7504    0.0000 C   0  0  0  0  0  0  0  0  0  0  0  0
   -7.5399    2.3708    0.0000 C   0  0  0  0  0  0  0  0  0  0  0  0
   -0.9310    2.2090    0.0000 C   0  0  0  0  0  0  0  0  0  0  0  0
    3.4370   -0.7578    0.0000 C   0  0  0  0  0  0  0  0  0  0  0  0
    4.5193    0.2807    0.0000 C   0  0  0  0  0  0  0  0  0  0  0  0
    5.9957    0.0155    0.0000 C   0  0  0  0  0  0  0  0  0  0  0  0
    6.7865   -1.2591    0.0000 C   0  0  0  0  0  0  0  0  0  0  0  0
    8.2857   -1.2116    0.0000 C   0  0  0  0  0  0  0  0  0  0  0  0
    8.9942    0.1105    0.0000 C   0  0  0  0  0  0  0  0  0  0  0  0
    8.2034    1.3851    0.0000 C   0  0  0  0  0  0  0  0  0  0  0  0
    6.7042    1.3376    0.0000 C   0  0  0  0  0  0  0  0  0  0  0  0
    5.6657    2.4200    0.0000 N   0  0  0  0  0  0  0  0  0  0  0  0
    4.3154    1.7668    0.0000 C   0  0  0  0  0  0  0  0  0  0  0  0
    2.9932    2.4753    0.0000 O   0  0  0  0  0  0  0  0  0  0  0  0
    9.0765   -2.4863    0.0000 F   0  0  0  0  0  0  0  0  0  0  0  0
  1  2  1  0
  2  3  2  0
  3  4  1  0
  4  5  1  0
  5  6  2  0
  6  7  1  0
  7  8  2  0
  7  9  1  0
 10  9  1  1
 10 11  1  0
 11 12  1  0
 12 13  1  0
 13 14  1  0
 13 15  1  0
 15 16  2  0
 15 17  1  0
 17 18  1  0
 17 19  1  0
  5 20  1  0
  3 21  1  0
 21 22  2  0
 22 23  1  0
 23 24  2  0
 24 25  1  0
 25 26  2  0
 26 27  1  0
 27 28  2  0
 28 29  1  0
 29 30  1  0
 30 31  2  0
 25 32  1  0
  6  2  1  0
 14 10  1  0
 30 22  1  0
 28 23  1  0
M  END
>  <BrandName>  (63) 


>  <Applicants>  (63) 
Tyrogenex

>  <CHEMBL_ID>  (63) 
CHEMBL4297587

>  <Canonical_Smiles>  (63) 
Cc1c([nH]c(c1C(=O)N[C@H]2CCN(C2)C(=O)N(C)C)C)/C=C\3/c4cc(ccc4NC3=O)F

>  <Chirality>  (63) 
Single Stereoisomer

>  <First_Approval>  (63) 
nan

>  <Phase>  (63) 
2.0

>  <SC_Patent>  (63) 
nan

>  <Synonyms>  (63) 
VOROLANIB

>  <Withdrawn>  (63) 
{''}

>  <Indications>  (63) 
nan

>  <Type>  (63) 
nan

>  <targets_id>  (63) 
nan

>  <Inchi>  (63) 
InChI=1S/C23H26FN5O3/c1-12-19(10-17-16-9-14(24)5-6-18(16)27-21(17)30)25-13(2)20(12)22(31)26-15-7-8-29(11-15)23(32)28(3)4/h5-6,9-10,15,25H,7-8,11H2,1-4H3,(H,26,31)(H,27,30)/b17-10-/t15-/m0/s1

>  <stdInchikey>  (63) 
KMIOJWCYOHBUJS-HAKPAVFJSA-N

>  <csid>  (63) 
58827733

>  <Links>  (63) 
|http://www.chemspider.com/Chemical-Structure.58827733.html|https://www.ebi.ac.uk/chembldb/compound/inspect/CHEMBL4297587|https://pubchem.ncbi.nlm.nih.gov/compound/59215954|https://go.drugbank.com/drugs/DB15247|https://precision.fda.gov/uniisearch/srs/unii/YP8G3I74EL

>  <LinkName>  (63) 
|ChemSpider|ChEMBL|PubChem|DrugBank|FDA SRS

>  <lig_pdb_ID>  (63) 


>  <pdb_IDs>  (63) 


>  <indicationDB>  (63) 


>  <uniprotId>  (63) 


>  <indicationG2P>  (63) 


>  <MW>  (63) 
439.2

>  <HBA>  (63) 
3

>  <HBD>  (63) 
3

>  <NRB>  (63) 
3

>  <TPSA>  (63) 
97.5

>  <LogP>  (63) 
2.7

>  <RoF>  (63) 
0

>  <Melting point>  (63) 
nan

>  <Targets>  (63) 
nan

>  <Kinase families>  (63) 


>  <FDA_approved>  (63) 


$$$$
Rocbrutinib
     RDKit          2D

 56 63  0  0  0  0  0  0  0  0999 V2000
    3.0297   -4.5664    0.0000 C   0  0  0  0  0  0  0  0  0  0  0  0
    4.2148   -3.6468    0.0000 C   0  0  0  0  0  0  0  0  0  0  0  0
    4.0109   -2.1608    0.0000 C   0  0  0  0  0  0  0  0  0  0  0  0
    2.6220   -1.5943    0.0000 O   0  0  0  0  0  0  0  0  0  0  0  0
    5.1959   -1.2412    0.0000 N   0  0  0  0  0  0  0  0  0  0  0  0
    4.9920    0.2449    0.0000 C   0  0  0  0  0  0  0  0  0  0  0  0
    3.6031    0.8114    0.0000 C   0  0  0  0  0  0  0  0  0  0  0  0
    3.3992    2.2975    0.0000 C   0  0  0  0  0  0  0  0  0  0  0  0
    2.0103    2.8640    0.0000 N   0  0  0  0  0  0  0  0  0  0  0  0
    0.8253    1.9443    0.0000 C   0  0  0  0  0  0  0  0  0  0  0  0
   -0.5636    2.5108    0.0000 N   0  0  0  0  0  0  0  0  0  0  0  0
   -1.7487    1.5912    0.0000 C   0  0  0  0  0  0  0  0  0  0  0  0
   -3.1376    2.1577    0.0000 C   0  0  0  0  0  0  0  0  0  0  0  0
   -3.3415    3.6438    0.0000 C   0  0  0  0  0  0  0  0  0  0  0  0
   -4.7304    4.2103    0.0000 C   0  0  0  0  0  0  0  0  0  0  0  0
   -5.9155    3.2907    0.0000 N   0  0  0  0  0  0  0  0  0  0  0  0
   -5.7116    1.8046    0.0000 C   0  0  0  0  0  0  0  0  0  0  0  0
   -6.8966    0.8850    0.0000 N   0  0  0  0  0  0  0  0  0  0  0  0
   -6.6927   -0.6011    0.0000 C   0  0  0  0  0  0  0  0  0  0  0  0
   -7.8778   -1.5207    0.0000 C   0  0  0  0  0  0  0  0  0  0  0  0
   -9.2667   -0.9542    0.0000 N   0  0  0  0  0  0  0  0  0  0  0  0
   -9.4706    0.5318    0.0000 C   0  0  0  0  0  0  0  0  0  0  0  0
  -10.9469    0.7972    0.0000 C   0  0  0  0  0  0  0  0  0  0  0  0
  -11.6555   -0.5249    0.0000 C   0  0  0  0  0  0  0  0  0  0  0  0
  -10.6171   -1.6074    0.0000 C   0  0  0  0  0  0  0  0  0  0  0  0
  -11.3256   -2.9295    0.0000 C   0  0  0  0  0  0  0  0  0  0  0  0
  -12.8020   -2.6641    0.0000 C   0  0  0  0  0  0  0  0  0  0  0  0
  -12.9115   -4.1601    0.0000 C   0  0  0  0  0  0  0  0  0  0  0  0
  -14.3012   -2.7116    0.0000 C   0  0  0  0  0  0  0  0  0  0  0  0
  -13.0058   -1.1780    0.0000 C   0  0  0  0  0  0  0  0  0  0  0  0
   -8.2855    1.4515    0.0000 C   0  0  0  0  0  0  0  0  0  0  0  0
   -8.4894    2.9375    0.0000 O   0  0  0  0  0  0  0  0  0  0  0  0
   -4.3227    1.2381    0.0000 C   0  0  0  0  0  0  0  0  0  0  0  0
   -4.1188   -0.2480    0.0000 C   0  0  0  0  0  0  0  0  0  0  0  0
   -5.3038   -1.1676    0.0000 O   0  0  0  0  0  0  0  0  0  0  0  0
   -1.5448    0.1051    0.0000 C   0  0  0  0  0  0  0  0  0  0  0  0
   -0.1559   -0.4613    0.0000 N   0  0  0  0  0  0  0  0  0  0  0  0
    0.0480   -1.9474    0.0000 C   0  0  0  0  0  0  0  0  0  0  0  0
    1.0292    0.4583    0.0000 C   0  0  0  0  0  0  0  0  0  0  0  0
    2.4181   -0.1082    0.0000 O   0  0  0  0  0  0  0  0  0  0  0  0
    4.5843    3.2171    0.0000 C   0  0  0  0  0  0  0  0  0  0  0  0
    5.9732    2.6506    0.0000 C   0  0  0  0  0  0  0  0  0  0  0  0
    6.1771    1.1645    0.0000 C   0  0  0  0  0  0  0  0  0  0  0  0
    7.5660    0.5980    0.0000 N   0  0  0  0  0  0  0  0  0  0  0  0
    7.7699   -0.8880    0.0000 C   0  0  0  0  0  0  0  0  0  0  0  0
    9.1588   -1.4545    0.0000 C   0  0  0  0  0  0  0  0  0  0  0  0
   10.3439   -0.5349    0.0000 N   0  0  0  0  0  0  0  0  0  0  0  0
   11.7328   -1.1014    0.0000 C   0  0  0  0  0  0  0  0  0  0  0  0
   11.9366   -2.5875    0.0000 C   0  0  0  0  0  0  0  0  0  0  0  0
   13.3256   -3.1539    0.0000 C   0  0  0  0  0  0  0  0  0  0  0  0
   14.5106   -2.2343    0.0000 O   0  0  0  0  0  0  0  0  0  0  0  0
   14.3067   -0.7483    0.0000 C   0  0  0  0  0  0  0  0  0  0  0  0
   12.9178   -0.1818    0.0000 C   0  0  0  0  0  0  0  0  0  0  0  0
   10.1400    0.9512    0.0000 C   0  0  0  0  0  0  0  0  0  0  0  0
    8.7511    1.5176    0.0000 C   0  0  0  0  0  0  0  0  0  0  0  0
    8.5472    3.0037    0.0000 C   0  0  0  0  0  0  0  0  0  0  0  0
  1  2  2  0
  2  3  1  0
  3  4  2  0
  3  5  1  0
  5  6  1  0
  6  7  2  0
  7  8  1  0
  8  9  1  0
  9 10  1  0
 10 11  2  0
 11 12  1  0
 12 13  1  0
 13 14  2  0
 14 15  1  0
 15 16  2  0
 16 17  1  0
 17 18  1  0
 18 19  1  0
 19 20  1  0
 20 21  1  0
 21 22  1  0
 22 23  2  0
 23 24  1  0
 24 25  2  0
 25 26  1  0
 26 27  1  0
 27 28  1  0
 27 29  1  0
 27 30  1  0
 22 31  1  0
 31 32  2  0
 17 33  2  0
 33 34  1  0
 34 35  1  0
 12 36  2  0
 36 37  1  0
 37 38  1  0
 37 39  1  0
 39 40  2  0
  8 41  2  0
 41 42  1  0
 42 43  2  0
 43 44  1  0
 44 45  1  0
 45 46  1  0
 46 47  1  0
 47 48  1  0
 48 49  1  0
 49 50  1  0
 50 51  1  0
 51 52  1  0
 52 53  1  0
 47 54  1  0
 54 55  1  0
 55 56  1  1
 43  6  1  0
 55 44  1  0
 39 10  1  0
 53 48  1  0
 33 13  1  0
 31 18  1  0
 25 21  1  0
 30 24  1  0
M  END
>  <BrandName>  (64) 


>  <Applicants>  (64) 
('Newave Pharmaceutical',)

>  <CHEMBL_ID>  (64) 
CHEMBL5314539

>  <Canonical_Smiles>  (64) 
C=CC(=O)Nc1cc(Nc2nc(-c3ccnc(N4CCn5c(cc6c5CC(C)(C)C6)C4=O)c3CO)cn(C)c2=O)ccc1N1CCN(C2CCOCC2)C[C@@H]1C

>  <Chirality>  (64) 
Unknown

>  <First_Approval>  (64) 
nan

>  <Phase>  (64) 
2.0

>  <SC_Patent>  (64) 
nan

>  <Synonyms>  (64) 
ROCBRUTINIB

>  <Withdrawn>  (64) 
{''}

>  <Indications>  (64) 
nan

>  <Type>  (64) 
nan

>  <targets_id>  (64) 
nan

>  <Inchi>  (64) 
InChI=1S/C42H51N9O5/c1-6-37(53)45-32-20-28(7-8-34(32)49-14-13-48(23-26(49)2)29-10-17-56-18-11-29)44-38-41(55)47(5)24-33(46-38)30-9-12-43-39(31(30)25-52)51-16-15-50-35(40(51)54)19-27-21-42(3,4)22-36(27)50/h6-9,12,19-20,24,26,29,52H,1,10-11,13-18,21-23,25H2,2-5H3,(H,44,46)(H,45,53)/t26-/m0/s1

>  <stdInchikey>  (64) 
OYJVFTNYBWVQHA-SANMLTNESA-N

>  <csid>  (64) 
nan

>  <Links>  (64) 
|http://www.chemspider.com/Chemical-Structure.nan.html|https://www.ebi.ac.uk/chembldb/compound/inspect/CHEMBL5314539|https://pubchem.ncbi.nlm.nih.gov/compound/139416847

>  <LinkName>  (64) 
|ChemSpider|ChEMBL|PubChem

>  <lig_pdb_ID>  (64) 


>  <pdb_IDs>  (64) 


>  <indicationDB>  (64) 


>  <uniprotId>  (64) 


>  <indicationG2P>  (64) 


>  <MW>  (64) 
761.4

>  <HBA>  (64) 
12

>  <HBD>  (64) 
3

>  <NRB>  (64) 
9

>  <TPSA>  (64) 
150.1

>  <LogP>  (64) 
4.5

>  <RoF>  (64) 
2

>  <Melting point>  (64) 
nan

>  <Targets>  (64) 
nan

>  <Kinase families>  (64) 


>  <FDA_approved>  (64) 


$$$$
Rogaratinib
     RDKit          2D

 33 37  0  0  0  0  0  0  0  0999 V2000
    7.6853    0.2232    0.0000 C   0  0  0  0  0  0  0  0  0  0  0  0
    6.2020    0.4459    0.0000 C   0  0  0  0  0  0  0  0  0  0  0  0
    5.2674   -0.7274    0.0000 C   0  0  0  0  0  0  0  0  0  0  0  0
    3.7840   -0.5047    0.0000 C   0  0  0  0  0  0  0  0  0  0  0  0
    2.6259   -1.4580    0.0000 C   0  0  0  0  0  0  0  0  0  0  0  0
    1.3614   -0.6512    0.0000 C   0  0  0  0  0  0  0  0  0  0  0  0
    1.7379    0.8007    0.0000 S   0  0  0  0  0  0  0  0  0  0  0  0
    3.2352    0.8913    0.0000 C   0  0  0  0  0  0  0  0  0  0  0  0
    4.1698    2.0646    0.0000 C   0  0  0  0  0  0  0  0  0  0  0  0
    5.6531    1.8419    0.0000 C   0  0  0  0  0  0  0  0  0  0  0  0
    3.6209    3.4606    0.0000 O   0  0  0  0  0  0  0  0  0  0  0  0
    4.5555    4.6339    0.0000 C   0  0  0  0  0  0  0  0  0  0  0  0
   -0.0346   -1.2001    0.0000 C   0  0  0  0  0  0  0  0  0  0  0  0
   -1.2991   -0.3933    0.0000 C   0  0  0  0  0  0  0  0  0  0  0  0
   -2.4572   -1.3466    0.0000 C   0  0  0  0  0  0  0  0  0  0  0  0
   -1.9084   -2.7426    0.0000 N   0  0  0  0  0  0  0  0  0  0  0  0
   -0.4111   -2.6520    0.0000 C   0  0  0  0  0  0  0  0  0  0  0  0
    0.4159   -3.9034    0.0000 C   0  0  0  0  0  0  0  0  0  0  0  0
   -0.2543   -5.2454    0.0000 N   0  0  0  0  0  0  0  0  0  0  0  0
   -1.7515   -5.3359    0.0000 C   0  0  0  0  0  0  0  0  0  0  0  0
   -2.5786   -4.0846    0.0000 N   0  0  0  0  0  0  0  0  0  0  0  0
    1.9132   -3.8128    0.0000 N   0  0  0  0  0  0  0  0  0  0  0  0
   -3.9092   -0.9701    0.0000 C   0  0  0  0  0  0  0  0  0  0  0  0
   -4.3091    0.4757    0.0000 N   0  0  0  0  0  0  0  0  0  0  0  0
   -3.2570    1.5448    0.0000 C   0  0  0  0  0  0  0  0  0  0  0  0
   -3.6569    2.9905    0.0000 C   0  0  0  0  0  0  0  0  0  0  0  0
   -5.1089    3.3671    0.0000 N   0  0  0  0  0  0  0  0  0  0  0  0
   -6.1609    2.2979    0.0000 C   0  0  0  0  0  0  0  0  0  0  0  0
   -7.6129    2.6744    0.0000 O   0  0  0  0  0  0  0  0  0  0  0  0
   -5.7610    0.8522    0.0000 C   0  0  0  0  0  0  0  0  0  0  0  0
   -1.3897    1.1040    0.0000 C   0  0  0  0  0  0  0  0  0  0  0  0
   -0.1383    1.9311    0.0000 O   0  0  0  0  0  0  0  0  0  0  0  0
   -0.2289    3.4283    0.0000 C   0  0  0  0  0  0  0  0  0  0  0  0
  1  2  1  0
  2  3  2  0
  3  4  1  0
  4  5  1  0
  5  6  2  0
  6  7  1  0
  7  8  1  0
  8  9  1  0
  9 10  2  0
  9 11  1  0
 11 12  1  0
  6 13  1  0
 13 14  1  0
 14 15  2  0
 15 16  1  0
 16 17  1  0
 17 18  1  0
 18 19  2  0
 19 20  1  0
 20 21  2  0
 18 22  1  0
 15 23  1  0
 23 24  1  0
 24 25  1  0
 25 26  1  0
 26 27  1  0
 27 28  1  0
 28 29  2  0
 28 30  1  0
 14 31  1  0
 31 32  1  0
 32 33  1  0
 10  2  1  0
  8  4  2  0
 17 13  2  0
 21 16  1  0
 30 24  1  0
M  END
>  <BrandName>  (65) 


>  <Applicants>  (65) 
Bayer

>  <CHEMBL_ID>  (65) 
CHEMBL3963485

>  <Canonical_Smiles>  (65) 
Cc1cc2cc(sc2c(c1)OC)c3c(c(n4c3c(ncn4)N)CN5CCNC(=O)C5)COC

>  <Chirality>  (65) 
Achiral Molecule

>  <First_Approval>  (65) 
nan

>  <Phase>  (65) 
2.0

>  <SC_Patent>  (65) 
nan

>  <Synonyms>  (65) 
BAY-1163877 | ROGARATINIB

>  <Withdrawn>  (65) 
{''}

>  <Indications>  (65) 
Rogaratinib (BAY-1163877) is a FGFR-selective kinase inhibitor that is being investigated for antineoplastic activity.

>  <Type>  (65) 
nan

>  <targets_id>  (65) 
nan

>  <Inchi>  (65) 
InChI=1S/C23H26N6O3S/c1-13-6-14-8-18(33-22(14)17(7-13)32-3)20-15(11-31-2)16(9-28-5-4-25-19(30)10-28)29-21(20)23(24)26-12-27-29/h6-8,12H,4-5,9-11H2,1-3H3,(H,25,30)(H2,24,26,27)

>  <stdInchikey>  (65) 
HNLRRJSKGXOYNO-UHFFFAOYSA-N

>  <csid>  (65) 
58828032

>  <Links>  (65) 
|http://www.chemspider.com/Chemical-Structure.58828032.html|https://www.ebi.ac.uk/chembldb/compound/inspect/CHEMBL3963485|https://pubchem.ncbi.nlm.nih.gov/compound/71611869|https://go.drugbank.com/drugs/DB15078|https://www.guidetopharmacology.org/GRAC/LigandDisplayForward?9789|https://precision.fda.gov/uniisearch/srs/unii/98BSN6N516|https://www.bindingdb.org/bind/chemsearch/marvin/MolStructure.jsp?monomerid=194820

>  <LinkName>  (65) 
|ChemSpider|ChEMBL|PubChem|DrugBank|Guide to Pharmacology|FDA SRS|BindingDB

>  <lig_pdb_ID>  (65) 


>  <pdb_IDs>  (65) 


>  <indicationDB>  (65) 


>  <uniprotId>  (65) 


>  <indicationG2P>  (65) 
None

>  <MW>  (65) 
466.2

>  <HBA>  (65) 
9

>  <HBD>  (65) 
2

>  <NRB>  (65) 
6

>  <TPSA>  (65) 
107.0

>  <LogP>  (65) 
2.6

>  <RoF>  (65) 
0

>  <Melting point>  (65) 
nan

>  <Targets>  (65) 
nan

>  <Kinase families>  (65) 


>  <FDA_approved>  (65) 


$$$$
Roniciclib
     RDKit          2D

 29 31  0  0  0  0  0  0  0  0999 V2000
    0.9989   -2.4021    0.0000 C   0  0  0  0  0  0  0  0  0  0  0  0
   -0.3274   -1.7015    0.0000 C   0  0  0  0  0  0  0  0  0  0  0  0
   -1.5973   -2.4998    0.0000 C   0  0  0  0  0  0  0  0  0  0  0  0
   -1.5410   -3.9987    0.0000 C   0  0  0  0  0  0  0  0  0  0  0  0
   -2.9237   -1.7991    0.0000 O   0  0  0  0  0  0  0  0  0  0  0  0
   -2.9800   -0.3002    0.0000 C   0  0  0  0  0  0  0  0  0  0  0  0
   -4.3064    0.4004    0.0000 C   0  0  0  0  0  0  0  0  0  0  0  0
   -4.3627    1.8994    0.0000 C   0  0  0  0  0  0  0  0  0  0  0  0
   -3.0928    2.6977    0.0000 N   0  0  0  0  0  0  0  0  0  0  0  0
   -1.7665    1.9970    0.0000 C   0  0  0  0  0  0  0  0  0  0  0  0
   -1.7101    0.4981    0.0000 N   0  0  0  0  0  0  0  0  0  0  0  0
   -0.4966    2.7953    0.0000 N   0  0  0  0  0  0  0  0  0  0  0  0
    0.8297    2.0947    0.0000 C   0  0  0  0  0  0  0  0  0  0  0  0
    0.8861    0.5958    0.0000 C   0  0  0  0  0  0  0  0  0  0  0  0
    2.2124   -0.1049    0.0000 C   0  0  0  0  0  0  0  0  0  0  0  0
    3.4824    0.6934    0.0000 C   0  0  0  0  0  0  0  0  0  0  0  0
    3.4260    2.1924    0.0000 C   0  0  0  0  0  0  0  0  0  0  0  0
    2.0997    2.8930    0.0000 C   0  0  0  0  0  0  0  0  0  0  0  0
    4.8087   -0.0072    0.0000 S   0  0  0  0  0  6  0  0  0  0  0  0
    5.5093    1.3191    0.0000 N   0  0  0  0  0  0  0  0  0  0  0  0
    4.1080   -1.3335    0.0000 O   0  0  0  0  0  0  0  0  0  0  0  0
    6.1350   -0.7079    0.0000 C   0  0  0  0  0  0  0  0  0  0  0  0
    7.6339   -0.6515    0.0000 C   0  0  0  0  0  0  0  0  0  0  0  0
    6.9333   -1.9778    0.0000 C   0  0  0  0  0  0  0  0  0  0  0  0
   -5.5763   -0.3979    0.0000 C   0  0  0  0  0  0  0  0  0  0  0  0
   -6.8462   -1.1962    0.0000 F   0  0  0  0  0  0  0  0  0  0  0  0
   -6.3746    0.8721    0.0000 F   0  0  0  0  0  0  0  0  0  0  0  0
   -4.7780   -1.6678    0.0000 F   0  0  0  0  0  0  0  0  0  0  0  0
   -0.3838   -0.2025    0.0000 O   0  0  0  0  0  0  0  0  0  0  0  0
  2  1  1  6
  2  3  1  0
  3  4  1  1
  3  5  1  0
  5  6  1  0
  6  7  2  0
  7  8  1  0
  8  9  2  0
  9 10  1  0
 10 11  2  0
 10 12  1  0
 12 13  1  0
 13 14  2  0
 14 15  1  0
 15 16  2  0
 16 17  1  0
 17 18  2  0
 19 16  1  1
 19 20  2  0
 19 21  2  0
 19 22  1  0
 22 23  1  0
 23 24  1  0
  7 25  1  0
 25 26  1  0
 25 27  1  0
 25 28  1  0
  2 29  1  0
 11  6  1  0
 18 13  1  0
 24 22  1  0
M  END
>  <BrandName>  (66) 


>  <Applicants>  (66) 
Bayer

>  <CHEMBL_ID>  (66) 
CHEMBL4442620

>  <Canonical_Smiles>  (66) 
C[C@H]([C@@H](C)Oc1c(cnc(n1)Nc2ccc(cc2)[S@](=N)(=O)C3CC3)C(F)(F)F)O

>  <Chirality>  (66) 
Single Stereoisomer

>  <First_Approval>  (66) 
nan

>  <Phase>  (66) 
2.0

>  <SC_Patent>  (66) 
nan

>  <Synonyms>  (66) 
|BAY1000394|BAY10-00394

>  <Withdrawn>  (66) 
{''}

>  <Indications>  (66) 
nan

>  <Type>  (66) 
nan

>  <targets_id>  (66) 
P06493|P24941|P11802|P50750

>  <Inchi>  (66) 
InChI=1S/C18H21F3N4O3S/c1-10(26)11(2)28-16-15(18(19,20)21)9-23-17(25-16)24-12-3-5-13(6-4-12)29(22,27)14-7-8-14/h3-6,9-11,14,22,26H,7-8H2,1-2H3,(H,23,24,25)/t10-,11-,29?/m1/s1

>  <stdInchikey>  (66) 
UELYDGOOJPRWGF-SRQXXRKNSA-N

>  <csid>  (66) 
32697590

>  <Links>  (66) 
|http://www.chemspider.com/Chemical-Structure.32697590.html|https://www.ebi.ac.uk/chembldb/compound/inspect/CHEMBL4282338|https://pubchem.ncbi.nlm.nih.gov/compound/71494949|https://go.drugbank.com/drugs/DB12974|https://www.rcsb.org/ligand/R0N|https://www.ebi.ac.uk/pdbe-srv/pdbechem/chemicalCompound/show/R0N|https://zinc15.docking.org/substances/ZINC000095616570|https://precision.fda.gov/uniisearch/srs/unii/0W9Q8U337A|https://www.bindingdb.org/bind/chemsearch/marvin/MolStructure.jsp?monomerid=50468265

>  <LinkName>  (66) 
|ChemSpider|ChEMBL|PubChem|DrugBank|RCSB|PDBe|ZINC|FDA SRS|BindingDB

>  <lig_pdb_ID>  (66) 
R0N

>  <pdb_IDs>  (66) 
5iev

>  <indicationDB>  (66) 


>  <uniprotId>  (66) 


>  <indicationG2P>  (66) 


>  <MW>  (66) 
430.1

>  <HBA>  (66) 
7

>  <HBD>  (66) 
3

>  <NRB>  (66) 
7

>  <TPSA>  (66) 
108.2

>  <LogP>  (66) 
4.0

>  <RoF>  (66) 
0

>  <Melting point>  (66) 
nan

>  <Targets>  (66) 
CDK1; CDK2; CDK4; CDK9

>  <Kinase families>  (66) 
CMGC

>  <FDA_approved>  (66) 


$$$$
Samotolisib
     RDKit          2D

 30 33  0  0  0  0  0  0  0  0999 V2000
   -0.4488   -4.0828    0.0000 C   0  0  0  0  0  0  0  0  0  0  0  0
   -1.5886   -3.1076    0.0000 C   0  0  0  0  0  0  0  0  0  0  0  0
   -1.3139   -1.6330    0.0000 C   0  0  0  0  0  0  0  0  0  0  0  0
   -2.4536   -0.6578    0.0000 N   0  0  0  0  0  0  0  0  0  0  0  0
   -2.3346    0.8375    0.0000 C   0  0  0  0  0  0  0  0  0  0  0  0
   -1.1437    1.7495    0.0000 C   0  0  0  0  0  0  0  0  0  0  0  0
    0.2416    1.1743    0.0000 C   0  0  0  0  0  0  0  0  0  0  0  0
    1.4325    2.0863    0.0000 C   0  0  0  0  0  0  0  0  0  0  0  0
    1.2380    3.5737    0.0000 C   0  0  0  0  0  0  0  0  0  0  0  0
   -0.1473    4.1489    0.0000 C   0  0  0  0  0  0  0  0  0  0  0  0
   -1.3381    3.2369    0.0000 C   0  0  0  0  0  0  0  0  0  0  0  0
   -2.7234    3.8122    0.0000 N   0  0  0  0  0  0  0  0  0  0  0  0
   -3.9143    2.9001    0.0000 C   0  0  0  0  0  0  0  0  0  0  0  0
   -3.7199    1.4128    0.0000 C   0  0  0  0  0  0  0  0  0  0  0  0
   -4.6951    0.2730    0.0000 N   0  0  0  0  0  0  0  0  0  0  0  0
   -3.9125   -1.0066    0.0000 C   0  0  0  0  0  0  0  0  0  0  0  0
   -4.4878   -2.3919    0.0000 O   0  0  0  0  0  0  0  0  0  0  0  0
   -6.1903    0.3921    0.0000 C   0  0  0  0  0  0  0  0  0  0  0  0
    2.8177    1.5110    0.0000 C   0  0  0  0  0  0  0  0  0  0  0  0
    3.0122    0.0237    0.0000 C   0  0  0  0  0  0  0  0  0  0  0  0
    4.3975   -0.5516    0.0000 C   0  0  0  0  0  0  0  0  0  0  0  0
    5.5883    0.3605    0.0000 C   0  0  0  0  0  0  0  0  0  0  0  0
    5.3939    1.8478    0.0000 N   0  0  0  0  0  0  0  0  0  0  0  0
    4.0086    2.4231    0.0000 C   0  0  0  0  0  0  0  0  0  0  0  0
    4.5919   -2.0389    0.0000 C   0  0  0  0  0  0  0  0  0  0  0  0
    6.0793   -1.8445    0.0000 C   0  0  0  0  0  0  0  0  0  0  0  0
    3.1046   -2.2334    0.0000 C   0  0  0  0  0  0  0  0  0  0  0  0
    4.7864   -3.5263    0.0000 O   0  0  0  0  0  0  0  0  0  0  0  0
   -3.0030   -3.6071    0.0000 O   0  0  0  0  0  0  0  0  0  0  0  0
   -3.2777   -5.0817    0.0000 C   0  0  0  0  0  0  0  0  0  0  0  0
  2  1  1  6
  2  3  1  0
  3  4  1  0
  4  5  1  0
  5  6  2  0
  6  7  1  0
  7  8  2  0
  8  9  1  0
  9 10  2  0
 10 11  1  0
 11 12  2  0
 12 13  1  0
 13 14  2  0
 14 15  1  0
 15 16  1  0
 16 17  2  0
 15 18  1  0
  8 19  1  0
 19 20  2  0
 20 21  1  0
 21 22  2  0
 22 23  1  0
 23 24  2  0
 21 25  1  0
 25 26  1  0
 25 27  1  0
 25 28  1  0
  2 29  1  0
 29 30  1  0
 16  4  1  0
 14  5  1  0
 11  6  1  0
 24 19  1  0
M  END
>  <BrandName>  (67) 


>  <Applicants>  (67) 
Eli Lilly

>  <CHEMBL_ID>  (67) 
CHEMBL4297181

>  <Canonical_Smiles>  (67) 
C[C@@H](Cn1c2c3cc(ccc3ncc2n(c1=O)C)c4cc(cnc4)C(C)(C)O)OC

>  <Chirality>  (67) 
Single Stereoisomer

>  <First_Approval>  (67) 
nan

>  <Phase>  (67) 
2.0

>  <SC_Patent>  (67) 
nan

>  <Synonyms>  (67) 
LY 3023414 | LY-3023414 | LY3023414 | SAMOTOLISIB

>  <Withdrawn>  (67) 
{''}

>  <Indications>  (67) 
LY3023414 is a dual inhibitor of phosphoinositide 3-kinase &alpha; (PI3K&alpha;) and the serine/threonine kinase mTOR (mechanistic target of rapamycin), with potential antineoplastic activity.

>  <Type>  (67) 
nan

>  <targets_id>  (67) 
nan

>  <Inchi>  (67) 
InChI=1S/C23H26N4O3/c1-14(30-5)13-27-21-18-9-15(16-8-17(11-24-10-16)23(2,3)29)6-7-19(18)25-12-20(21)26(4)22(27)28/h6-12,14,29H,13H2,1-5H3/t14-/m0/s1

>  <stdInchikey>  (67) 
ACCFLVVUVBJNGT-AWEZNQCLSA-N

>  <csid>  (67) 
35142771

>  <Links>  (67) 
|http://www.chemspider.com/Chemical-Structure.35142771.html|https://www.ebi.ac.uk/chembldb/compound/inspect/CHEMBL4297181|https://pubchem.ncbi.nlm.nih.gov/compound/57519748|https://go.drugbank.com/drugs/DB12167|https://www.guidetopharmacology.org/GRAC/LigandDisplayForward?8918|https://zinc15.docking.org/substances/ZINC000143116580|https://precision.fda.gov/uniisearch/srs/unii/C88817F47Y

>  <LinkName>  (67) 
|ChemSpider|ChEMBL|PubChem|DrugBank|Guide to Pharmacology|ZINC|FDA SRS

>  <lig_pdb_ID>  (67) 


>  <pdb_IDs>  (67) 


>  <indicationDB>  (67) 


>  <uniprotId>  (67) 


>  <indicationG2P>  (67) 
None

>  <MW>  (67) 
406.2

>  <HBA>  (67) 
7

>  <HBD>  (67) 
1

>  <NRB>  (67) 
5

>  <TPSA>  (67) 
82.2

>  <LogP>  (67) 
3.2

>  <RoF>  (67) 
0

>  <Melting point>  (67) 
nan

>  <Targets>  (67) 
nan

>  <Kinase families>  (67) 


>  <FDA_approved>  (67) 


$$$$
Samuraciclib
     RDKit          2D

 29 32  0  0  0  0  0  0  0  0999 V2000
   -0.0480   -7.0020    0.0000 C   0  0  0  0  0  0  0  0  0  0  0  0
   -0.5219   -5.5788    0.0000 C   0  0  0  0  0  0  0  0  0  0  0  0
   -1.9914   -5.2777    0.0000 C   0  0  0  0  0  0  0  0  0  0  0  0
    0.4736   -4.4568    0.0000 C   0  0  0  0  0  0  0  0  0  0  0  0
    1.9665   -4.6027    0.0000 C   0  0  0  0  0  0  0  0  0  0  0  0
    2.5666   -3.2280    0.0000 N   0  0  0  0  0  0  0  0  0  0  0  0
    1.4445   -2.2324    0.0000 N   0  0  0  0  0  0  0  0  0  0  0  0
    1.4336   -0.7325    0.0000 C   0  0  0  0  0  0  0  0  0  0  0  0
    2.7271    0.0270    0.0000 N   0  0  0  0  0  0  0  0  0  0  0  0
    2.7162    1.5270    0.0000 C   0  0  0  0  0  0  0  0  0  0  0  0
    4.0097    2.2864    0.0000 C   0  0  0  0  0  0  0  0  0  0  0  0
    5.3142    1.5459    0.0000 C   0  0  0  0  0  0  0  0  0  0  0  0
    6.6077    2.3054    0.0000 C   0  0  0  0  0  0  0  0  0  0  0  0
    6.5968    3.8053    0.0000 C   0  0  0  0  0  0  0  0  0  0  0  0
    5.2923    4.5458    0.0000 C   0  0  0  0  0  0  0  0  0  0  0  0
    3.9988    3.7864    0.0000 C   0  0  0  0  0  0  0  0  0  0  0  0
    0.1291    0.0080    0.0000 C   0  0  0  0  0  0  0  0  0  0  0  0
   -1.1644   -0.7514    0.0000 C   0  0  0  0  0  0  0  0  0  0  0  0
   -2.4689   -0.0109    0.0000 N   0  0  0  0  0  0  0  0  0  0  0  0
   -2.4798    1.4890    0.0000 C   0  0  0  0  0  0  0  0  0  0  0  0
   -3.7843    2.2295    0.0000 C   0  0  0  0  0  0  0  0  0  0  0  0
   -3.7953    3.7295    0.0000 C   0  0  0  0  0  0  0  0  0  0  0  0
   -5.0997    4.4700    0.0000 C   0  0  0  0  0  0  0  0  0  0  0  0
   -6.3933    3.7105    0.0000 N   0  0  0  0  0  0  0  0  0  0  0  0
   -6.3823    2.2105    0.0000 C   0  0  0  0  0  0  0  0  0  0  0  0
   -5.0778    1.4701    0.0000 C   0  0  0  0  0  0  0  0  0  0  0  0
   -5.0669   -0.0299    0.0000 O   0  0  0  0  0  0  0  0  0  0  0  0
   -1.1535   -2.2514    0.0000 N   0  0  0  0  0  0  0  0  0  0  0  0
    0.1510   -2.9919    0.0000 C   0  0  0  0  0  0  0  0  0  0  0  0
  1  2  1  0
  2  3  1  0
  2  4  1  0
  4  5  1  0
  5  6  2  0
  6  7  1  0
  7  8  1  0
  8  9  1  0
  9 10  1  0
 10 11  1  0
 11 12  2  0
 12 13  1  0
 13 14  2  0
 14 15  1  0
 15 16  2  0
  8 17  2  0
 17 18  1  0
 18 19  1  0
 19 20  1  0
 21 20  1  6
 21 22  1  0
 22 23  1  0
 23 24  1  0
 24 25  1  0
 25 26  1  0
 26 27  1  1
 18 28  2  0
 28 29  1  0
 29  4  2  0
 29  7  1  0
 16 11  1  0
 26 21  1  0
M  END
>  <BrandName>  (68) 


>  <Applicants>  (68) 
Imperial College of Science, Technology and Medicine

>  <CHEMBL_ID>  (68) 
CHEMBL4297488

>  <Canonical_Smiles>  (68) 
CC(C)c1cnn2c(NCc3ccccc3)cc(NC[C@H]3CCNC[C@@H]3O)nc12

>  <Chirality>  (68) 
Single Stereoisomer

>  <First_Approval>  (68) 
nan

>  <Phase>  (68) 
2.0

>  <SC_Patent>  (68) 
nan

>  <Synonyms>  (68) 
CT-7001 | CT7001 | ICEC-0942 | ICEC0942 | SAMURACICLIB

>  <Withdrawn>  (68) 
{''}

>  <Indications>  (68) 
nan

>  <Type>  (68) 
nan

>  <targets_id>  (68) 
nan

>  <Inchi>  (68) 
InChI=1S/C22H30N6O/c1-15(2)18-13-26-28-21(25-11-16-6-4-3-5-7-16)10-20(27-22(18)28)24-12-17-8-9-23-14-19(17)29/h3-7,10,13,15,17,19,23,25,29H,8-9,11-12,14H2,1-2H3,(H,24,27)/t17-,19+/m1/s1

>  <stdInchikey>  (68) 
YCVGLKWJKIKVBI-MJGOQNOKSA-N

>  <csid>  (68) 
59053821

>  <Links>  (68) 
|http://www.chemspider.com/Chemical-Structure.59053821.html|https://www.ebi.ac.uk/chembldb/compound/inspect/CHEMBL4297488|https://pubchem.ncbi.nlm.nih.gov/compound/91844733|https://go.drugbank.com/drugs/DB16061|https://www.rcsb.org/ligand/I74|https://www.ebi.ac.uk/pdbe-srv/pdbechem/chemicalCompound/show/I74|https://www.guidetopharmacology.org/GRAC/LigandDisplayForward?9903|https://zinc15.docking.org/substances/ZINC000584905775|https://precision.fda.gov/uniisearch/srs/unii/46D4HS9ODA|https://www.bindingdb.org/bind/chemsearch/marvin/MolStructure.jsp?monomerid=50526797

>  <LinkName>  (68) 
|ChemSpider|ChEMBL|PubChem|DrugBank|RCSB|PDBe|Guide to Pharmacology|ZINC|FDA SRS|BindingDB

>  <lig_pdb_ID>  (68) 
I74

>  <pdb_IDs>  (68) 
5jq5 7b5o 7b5q 8p6v 8r9a 8ru8

>  <indicationDB>  (68) 


>  <uniprotId>  (68) 


>  <indicationG2P>  (68) 
None

>  <MW>  (68) 
394.2

>  <HBA>  (68) 
7

>  <HBD>  (68) 
4

>  <NRB>  (68) 
7

>  <TPSA>  (68) 
86.5

>  <LogP>  (68) 
2.8

>  <RoF>  (68) 
0

>  <Melting point>  (68) 
nan

>  <Targets>  (68) 
nan

>  <Kinase families>  (68) 


>  <FDA_approved>  (68) 


$$$$
Sapanisertib
     RDKit          2D

 23 26  0  0  0  0  0  0  0  0999 V2000
    3.3243    3.9627    0.0000 C   0  0  0  0  0  0  0  0  0  0  0  0
    3.7846    2.5351    0.0000 C   0  0  0  0  0  0  0  0  0  0  0  0
    5.2511    2.2199    0.0000 C   0  0  0  0  0  0  0  0  0  0  0  0
    2.7784    1.4226    0.0000 N   0  0  0  0  0  0  0  0  0  0  0  0
    3.0870   -0.0453    0.0000 C   0  0  0  0  0  0  0  0  0  0  0  0
    1.7863   -0.7924    0.0000 C   0  0  0  0  0  0  0  0  0  0  0  0
    0.6738    0.2138    0.0000 C   0  0  0  0  0  0  0  0  0  0  0  0
    1.2870    1.5828    0.0000 N   0  0  0  0  0  0  0  0  0  0  0  0
   -0.7941   -0.0948    0.0000 C   0  0  0  0  0  0  0  0  0  0  0  0
   -1.2609   -1.5203    0.0000 C   0  0  0  0  0  0  0  0  0  0  0  0
   -2.7288   -1.8289    0.0000 C   0  0  0  0  0  0  0  0  0  0  0  0
   -3.7300   -0.7119    0.0000 C   0  0  0  0  0  0  0  0  0  0  0  0
   -3.2632    0.7136    0.0000 C   0  0  0  0  0  0  0  0  0  0  0  0
   -1.7953    1.0222    0.0000 C   0  0  0  0  0  0  0  0  0  0  0  0
   -4.4748    1.5981    0.0000 N   0  0  0  0  0  0  0  0  0  0  0  0
   -5.6903    0.7191    0.0000 C   0  0  0  0  0  0  0  0  0  0  0  0
   -5.2300   -0.7085    0.0000 O   0  0  0  0  0  0  0  0  0  0  0  0
   -7.1158    1.1858    0.0000 N   0  0  0  0  0  0  0  0  0  0  0  0
    1.7829   -2.2924    0.0000 C   0  0  0  0  0  0  0  0  0  0  0  0
    3.0802   -3.0453    0.0000 N   0  0  0  0  0  0  0  0  0  0  0  0
    4.3810   -2.2982    0.0000 C   0  0  0  0  0  0  0  0  0  0  0  0
    4.3843   -0.7982    0.0000 N   0  0  0  0  0  0  0  0  0  0  0  0
    0.4822   -3.0395    0.0000 N   0  0  0  0  0  0  0  0  0  0  0  0
  1  2  1  0
  2  3  1  0
  2  4  1  0
  4  5  1  0
  5  6  2  0
  6  7  1  0
  7  8  2  0
  7  9  1  0
  9 10  2  0
 10 11  1  0
 11 12  2  0
 12 13  1  0
 13 14  2  0
 13 15  1  0
 15 16  2  0
 16 17  1  0
 16 18  1  0
  6 19  1  0
 19 20  2  0
 20 21  1  0
 21 22  2  0
 19 23  1  0
  8  4  1  0
 22  5  1  0
 14  9  1  0
 17 12  1  0
M  END
>  <BrandName>  (69) 


>  <Applicants>  (69) 
Takeda

>  <CHEMBL_ID>  (69) 
CHEMBL3545097

>  <Canonical_Smiles>  (69) 
CC(C)n1c2c(c(n1)c3ccc4c(c3)nc(o4)N)c(ncn2)N

>  <Chirality>  (69) 
Achiral Molecule

>  <First_Approval>  (69) 
nan

>  <Phase>  (69) 
2.0

>  <SC_Patent>  (69) 
nan

>  <Synonyms>  (69) 
CB-228 | INK-128 | INK128 | MLN-0128 | MLN0128 | SAPANISERTIB | TAK-228

>  <Withdrawn>  (69) 
{''}

>  <Indications>  (69) 
nan

>  <Type>  (69) 
nan

>  <targets_id>  (69) 
P42345

>  <Inchi>  (69) 
InChI=1S/C15H15N7O/c1-7(2)22-14-11(13(16)18-6-19-14)12(21-22)8-3-4-10-9(5-8)20-15(17)23-10/h3-7H,1-2H3,(H2,17,20)(H2,16,18,19)

>  <stdInchikey>  (69) 
GYLDXIAOMVERTK-UHFFFAOYSA-N

>  <csid>  (69) 
28189069

>  <Links>  (69) 
|http://www.chemspider.com/Chemical-Structure.28189069.html|https://www.ebi.ac.uk/chembldb/compound/inspect/CHEMBL3545097|https://pubchem.ncbi.nlm.nih.gov/compound/45375953|https://go.drugbank.com/drugs/DB11836|https://www.rcsb.org/ligand/FE5|https://www.ebi.ac.uk/pdbe-srv/pdbechem/chemicalCompound/show/FE5|https://www.guidetopharmacology.org/GRAC/LigandDisplayForward?7933|https://zinc15.docking.org/substances/ZINC000073069271|https://precision.fda.gov/uniisearch/srs/unii/JGH0DF1U03|https://www.bindingdb.org/bind/chemsearch/marvin/MolStructure.jsp?monomerid=315477

>  <LinkName>  (69) 
|ChemSpider|ChEMBL|PubChem|DrugBank|RCSB|PDBe|Guide to Pharmacology|ZINC|FDA SRS|BindingDB

>  <lig_pdb_ID>  (69) 
FE5

>  <pdb_IDs>  (69) 
6gvf

>  <indicationDB>  (69) 


>  <uniprotId>  (69) 


>  <indicationG2P>  (69) 
None

>  <MW>  (69) 
309.1

>  <HBA>  (69) 
8

>  <HBD>  (69) 
2

>  <NRB>  (69) 
2

>  <TPSA>  (69) 
121.7

>  <LogP>  (69) 
2.4

>  <RoF>  (69) 
0

>  <Melting point>  (69) 
nan

>  <Targets>  (69) 
MTOR

>  <Kinase families>  (69) 
Atypical

>  <FDA_approved>  (69) 


$$$$
Seliciclib
     RDKit          2D

 26 28  0  0  0  0  0  0  0  0999 V2000
    0.5807    6.1771    0.0000 C   0  0  0  0  0  0  0  0  0  0  0  0
   -0.6535    5.3245    0.0000 C   0  0  0  0  0  0  0  0  0  0  0  0
   -0.5322    3.8295    0.0000 C   0  0  0  0  0  0  0  0  0  0  0  0
    0.8232    3.1869    0.0000 C   0  0  0  0  0  0  0  0  0  0  0  0
    2.0574    4.0395    0.0000 O   0  0  0  0  0  0  0  0  0  0  0  0
   -1.7664    2.9769    0.0000 N   0  0  0  0  0  0  0  0  0  0  0  0
   -1.6451    1.4818    0.0000 C   0  0  0  0  0  0  0  0  0  0  0  0
   -0.2897    0.8393    0.0000 N   0  0  0  0  0  0  0  0  0  0  0  0
   -0.1684   -0.6558    0.0000 C   0  0  0  0  0  0  0  0  0  0  0  0
    1.1870   -1.2984    0.0000 N   0  0  0  0  0  0  0  0  0  0  0  0
    2.4211   -0.4458    0.0000 C   0  0  0  0  0  0  0  0  0  0  0  0
    3.7766   -1.0883    0.0000 C   0  0  0  0  0  0  0  0  0  0  0  0
    3.8978   -2.5834    0.0000 C   0  0  0  0  0  0  0  0  0  0  0  0
    5.2532   -3.2260    0.0000 C   0  0  0  0  0  0  0  0  0  0  0  0
    6.4874   -2.3734    0.0000 C   0  0  0  0  0  0  0  0  0  0  0  0
    6.3661   -0.8783    0.0000 C   0  0  0  0  0  0  0  0  0  0  0  0
    5.0107   -0.2358    0.0000 C   0  0  0  0  0  0  0  0  0  0  0  0
   -1.4026   -1.5084    0.0000 C   0  0  0  0  0  0  0  0  0  0  0  0
   -1.5948   -2.9960    0.0000 N   0  0  0  0  0  0  0  0  0  0  0  0
   -3.0691   -3.2729    0.0000 C   0  0  0  0  0  0  0  0  0  0  0  0
   -3.7879   -1.9564    0.0000 N   0  0  0  0  0  0  0  0  0  0  0  0
   -5.2756   -1.7641    0.0000 C   0  0  0  0  0  0  0  0  0  0  0  0
   -6.1859   -2.9563    0.0000 C   0  0  0  0  0  0  0  0  0  0  0  0
   -5.8529   -0.3797    0.0000 C   0  0  0  0  0  0  0  0  0  0  0  0
   -2.7580   -0.8658    0.0000 C   0  0  0  0  0  0  0  0  0  0  0  0
   -2.8793    0.6292    0.0000 N   0  0  0  0  0  0  0  0  0  0  0  0
  1  2  1  0
  3  2  1  6
  3  4  1  0
  4  5  1  0
  3  6  1  0
  6  7  1  0
  7  8  2  0
  8  9  1  0
  9 10  1  0
 10 11  1  0
 11 12  1  0
 12 13  2  0
 13 14  1  0
 14 15  2  0
 15 16  1  0
 16 17  2  0
  9 18  2  0
 18 19  1  0
 19 20  2  0
 20 21  1  0
 21 22  1  0
 22 23  1  0
 22 24  1  0
 21 25  1  0
 25 26  2  0
 26  7  1  0
 17 12  1  0
 25 18  1  0
M  END
>  <BrandName>  (70) 


>  <Applicants>  (70) 
Cyclacel pharmaceuticals

>  <CHEMBL_ID>  (70) 
CHEMBL14762

>  <Canonical_Smiles>  (70) 
CC[C@H](CO)Nc1nc(NCc2ccccc2)c3ncn(C(C)C)c3n1

>  <Chirality>  (70) 
Single Stereoisomer

>  <First_Approval>  (70) 
nan

>  <Phase>  (70) 
2.0

>  <SC_Patent>  (70) 
nan

>  <Synonyms>  (70) 
AL-39256 | CYC-202 | NSC-701554 | R-ROSCOVITINE | ROSCOVITIN | ROSCOVITINE | SELICICLIB

>  <Withdrawn>  (70) 
{''}

>  <Indications>  (70) 
nan

>  <Type>  (70) 
1

>  <targets_id>  (70) 
P24941|P50613|P50750

>  <Inchi>  (70) 
InChI=1S/C19H26N6O/c1-4-15(11-26)22-19-23-17(20-10-14-8-6-5-7-9-14)16-18(24-19)25(12-21-16)13(2)3/h5-9,12-13,15,26H,4,10-11H2,1-3H3,(H2,20,22,23,24)/t15-/m1/s1

>  <stdInchikey>  (70) 
BTIHMVBBUGXLCJ-OAHLLOKOSA-N

>  <csid>  (70) 
140922

>  <Links>  (70) 
|http://www.chemspider.com/Chemical-Structure.140922.html|https://www.ebi.ac.uk/chembldb/compound/inspect/CHEMBL14762|https://pubchem.ncbi.nlm.nih.gov/compound/160355|https://go.drugbank.com/drugs/DB06195|https://www.rcsb.org/ligand/RRC|https://www.ebi.ac.uk/pdbe-srv/pdbechem/chemicalCompound/show/RRC|https://www.guidetopharmacology.org/GRAC/LigandDisplayForward?6035|https://zinc15.docking.org/substances/ZINC000001649340|https://precision.fda.gov/uniisearch/srs/unii/0ES1C2KQ94|https://www.bindingdb.org/bind/chemsearch/marvin/MolStructure.jsp?monomerid=7533

>  <LinkName>  (70) 
|ChemSpider|ChEMBL|PubChem|DrugBank|RCSB|PDBe|Guide to Pharmacology|ZINC|FDA SRS|BindingDB

>  <lig_pdb_ID>  (70) 
RRC

>  <pdb_IDs>  (70) 
1unl 1ygk 2a4l 3ddq 8bu9 8fp0

>  <indicationDB>  (70) 


>  <uniprotId>  (70) 


>  <indicationG2P>  (70) 
None

>  <MW>  (70) 
354.2

>  <HBA>  (70) 
7

>  <HBD>  (70) 
3

>  <NRB>  (70) 
8

>  <TPSA>  (70) 
87.9

>  <LogP>  (70) 
3.2

>  <RoF>  (70) 
0

>  <Melting point>  (70) 
nan

>  <Targets>  (70) 
CDK2; CDK7; CDK9

>  <Kinase families>  (70) 
CMGC

>  <FDA_approved>  (70) 


$$$$
Exarafenib
     RDKit          2D

 37 40  0  0  0  0  0  0  0  0999 V2000
   -4.1170    2.9682    0.0000 C   0  0  0  0  0  0  0  0  0  0  0  0
   -2.6174    3.0002    0.0000 C   0  0  0  0  0  0  0  0  0  0  0  0
   -1.8952    4.3149    0.0000 C   0  0  0  0  0  0  0  0  0  0  0  0
   -0.3956    4.3469    0.0000 C   0  0  0  0  0  0  0  0  0  0  0  0
    0.3820    3.0641    0.0000 C   0  0  0  0  0  0  0  0  0  0  0  0
    1.8816    3.0961    0.0000 N   0  0  0  0  0  0  0  0  0  0  0  0
    2.6591    1.8133    0.0000 C   0  0  0  0  0  0  0  0  0  0  0  0
    1.9370    0.4986    0.0000 O   0  0  0  0  0  0  0  0  0  0  0  0
    4.1588    1.8453    0.0000 N   0  0  0  0  0  0  0  0  0  0  0  0
    5.0144    3.0773    0.0000 C   0  0  0  0  0  0  0  0  0  0  0  0
    6.4505    2.6443    0.0000 C   0  0  0  0  0  0  0  0  0  0  0  0
    6.4825    1.1446    0.0000 C   0  0  0  0  0  0  0  0  0  0  0  0
    7.7145    0.2890    0.0000 C   0  0  0  0  0  0  0  0  0  0  0  0
    7.5896   -1.2058    0.0000 C   0  0  0  0  0  0  0  0  0  0  0  0
    7.4646   -2.7006    0.0000 F   0  0  0  0  0  0  0  0  0  0  0  0
    9.0844   -1.3307    0.0000 F   0  0  0  0  0  0  0  0  0  0  0  0
    6.0948   -1.0808    0.0000 F   0  0  0  0  0  0  0  0  0  0  0  0
    5.0661    0.6508    0.0000 C   0  0  0  0  0  0  0  0  0  0  0  0
   -0.3402    1.7494    0.0000 C   0  0  0  0  0  0  0  0  0  0  0  0
   -1.8398    1.7174    0.0000 C   0  0  0  0  0  0  0  0  0  0  0  0
   -2.5620    0.4027    0.0000 C   0  0  0  0  0  0  0  0  0  0  0  0
   -4.0617    0.3707    0.0000 C   0  0  0  0  0  0  0  0  0  0  0  0
   -4.7838   -0.9440    0.0000 C   0  0  0  0  0  0  0  0  0  0  0  0
   -6.2835   -0.9760    0.0000 N   0  0  0  0  0  0  0  0  0  0  0  0
   -7.0610    0.3068    0.0000 C   0  0  0  0  0  0  0  0  0  0  0  0
   -8.5606    0.2748    0.0000 C   0  0  0  0  0  0  0  0  0  0  0  0
   -6.3388    1.6215    0.0000 C   0  0  0  0  0  0  0  0  0  0  0  0
   -7.1163    2.9043    0.0000 O   0  0  0  0  0  0  0  0  0  0  0  0
   -4.0063   -2.2268    0.0000 N   0  0  0  0  0  0  0  0  0  0  0  0
   -2.5066   -2.1948    0.0000 C   0  0  0  0  0  0  0  0  0  0  0  0
   -1.7291   -3.4776    0.0000 N   0  0  0  0  0  0  0  0  0  0  0  0
   -2.4513   -4.7923    0.0000 C   0  0  0  0  0  0  0  0  0  0  0  0
   -1.6738   -6.0750    0.0000 C   0  0  0  0  0  0  0  0  0  0  0  0
   -0.1741   -6.0431    0.0000 O   0  0  0  0  0  0  0  0  0  0  0  0
    0.5481   -4.7283    0.0000 C   0  0  0  0  0  0  0  0  0  0  0  0
   -0.2295   -3.4456    0.0000 C   0  0  0  0  0  0  0  0  0  0  0  0
   -1.7845   -0.8801    0.0000 C   0  0  0  0  0  0  0  0  0  0  0  0
  1  2  1  0
  2  3  2  0
  3  4  1  0
  4  5  2  0
  5  6  1  0
  6  7  1  0
  7  8  2  0
  7  9  1  0
  9 10  1  0
 10 11  1  0
 11 12  1  0
 12 13  1  1
 13 14  1  0
 14 15  1  0
 14 16  1  0
 14 17  1  0
 12 18  1  0
  5 19  1  0
 19 20  2  0
 20 21  1  0
 21 22  2  0
 22 23  1  0
 23 24  1  0
 24 25  1  0
 25 26  1  6
 25 27  1  0
 27 28  1  0
 23 29  2  0
 29 30  1  0
 30 31  1  0
 31 32  1  0
 32 33  1  0
 33 34  1  0
 34 35  1  0
 35 36  1  0
 30 37  2  0
 20  2  1  0
 37 21  1  0
 18  9  1  0
 36 31  1  0
M  END
>  <BrandName>  (71) 


>  <Applicants>  (71) 
Kinnate Biopharma

>  <CHEMBL_ID>  (71) 
CHEMBL5095099

>  <Canonical_Smiles>  (71) 
Cc1ccc(NC(=O)N2CC[C@@H](CC(F)(F)F)C2)cc1-c1cc(N[C@H](C)CO)nc(N2CCOCC2)c1

>  <Chirality>  (71) 
Single Stereoisomer

>  <First_Approval>  (71) 
nan

>  <Phase>  (71) 
2.0

>  <SC_Patent>  (71) 
nan

>  <Synonyms>  (71) 
EXARAFENIB

>  <Withdrawn>  (71) 
nan

>  <Indications>  (71) 
nan

>  <Type>  (71) 
nan

>  <targets_id>  (71) 
nan

>  <Inchi>  (71) 
InChI=1S/C26H34F3N5O3/c1-17-3-4-21(31-25(36)34-6-5-19(15-34)14-26(27,28)29)13-22(17)20-11-23(30-18(2)16-35)32-24(12-20)33-7-9-37-10-8-33/h3-4,11-13,18-19,35H,5-10,14-16H2,1-2H3,(H,30,32)(H,31,36)/t18-,19+/m1/s1

>  <stdInchikey>  (71) 
GZMYLSJUNSCMTD-MOPGFXCFSA-N

>  <csid>  (71) 
115277132

>  <Links>  (71) 
|http://www.chemspider.com/Chemical-Structure.115277132.html|https://www.ebi.ac.uk/chembldb/compound/inspect/CHEMBL5095099|https://pubchem.ncbi.nlm.nih.gov/compound/156297592|https://go.drugbank.com/drugs/DB17582|https://www.rcsb.org/ligand/WJ9|https://www.ebi.ac.uk/pdbe-srv/pdbechem/chemicalCompound/show/WJ9

>  <LinkName>  (71) 
|ChemSpider|ChEMBL|PubChem|DrugBank|RCSB|PDBe

>  <lig_pdb_ID>  (71) 
WJ9

>  <pdb_IDs>  (71) 
8qqg

>  <indicationDB>  (71) 


>  <uniprotId>  (71) 


>  <indicationG2P>  (71) 


>  <MW>  (71) 
521.3

>  <HBA>  (71) 
6

>  <HBD>  (71) 
3

>  <NRB>  (71) 
7

>  <TPSA>  (71) 
90.0

>  <LogP>  (71) 
4.5

>  <RoF>  (71) 
1

>  <Melting point>  (71) 
nan

>  <Targets>  (71) 
nan

>  <Kinase families>  (71) 


>  <FDA_approved>  (71) 


$$$$
Bafetinib
     RDKit          2D

 42 46  0  0  0  0  0  0  0  0999 V2000
   -8.0934    1.8219    0.0000 C   0  0  0  0  0  0  0  0  0  0  0  0
   -6.6012    1.9751    0.0000 C   0  0  0  0  0  0  0  0  0  0  0  0
   -5.9879    3.3440    0.0000 C   0  0  0  0  0  0  0  0  0  0  0  0
   -4.4957    3.4972    0.0000 C   0  0  0  0  0  0  0  0  0  0  0  0
   -3.6169    2.2816    0.0000 C   0  0  0  0  0  0  0  0  0  0  0  0
   -4.2303    0.9127    0.0000 C   0  0  0  0  0  0  0  0  0  0  0  0
   -5.7225    0.7595    0.0000 C   0  0  0  0  0  0  0  0  0  0  0  0
   -6.3358   -0.6094    0.0000 N   0  0  0  0  0  0  0  0  0  0  0  0
   -5.4570   -1.8250    0.0000 C   0  0  0  0  0  0  0  0  0  0  0  0
   -6.0704   -3.1938    0.0000 N   0  0  0  0  0  0  0  0  0  0  0  0
   -5.1916   -4.4095    0.0000 C   0  0  0  0  0  0  0  0  0  0  0  0
   -3.6994   -4.2562    0.0000 C   0  0  0  0  0  0  0  0  0  0  0  0
   -3.0861   -2.8874    0.0000 C   0  0  0  0  0  0  0  0  0  0  0  0
   -3.9649   -1.6717    0.0000 N   0  0  0  0  0  0  0  0  0  0  0  0
   -1.5939   -2.7341    0.0000 C   0  0  0  0  0  0  0  0  0  0  0  0
   -0.7151   -3.9497    0.0000 C   0  0  0  0  0  0  0  0  0  0  0  0
    0.7770   -3.7965    0.0000 N   0  0  0  0  0  0  0  0  0  0  0  0
    1.3904   -2.4276    0.0000 C   0  0  0  0  0  0  0  0  0  0  0  0
    0.5116   -1.2120    0.0000 N   0  0  0  0  0  0  0  0  0  0  0  0
   -0.9806   -1.3652    0.0000 C   0  0  0  0  0  0  0  0  0  0  0  0
   -2.1248    2.4349    0.0000 N   0  0  0  0  0  0  0  0  0  0  0  0
   -1.2460    1.2192    0.0000 C   0  0  0  0  0  0  0  0  0  0  0  0
   -1.8594   -0.1496    0.0000 O   0  0  0  0  0  0  0  0  0  0  0  0
    0.2462    1.3725    0.0000 C   0  0  0  0  0  0  0  0  0  0  0  0
    1.1249    0.1569    0.0000 C   0  0  0  0  0  0  0  0  0  0  0  0
    2.6171    0.3101    0.0000 C   0  0  0  0  0  0  0  0  0  0  0  0
    3.2305    1.6790    0.0000 C   0  0  0  0  0  0  0  0  0  0  0  0
    2.3517    2.8946    0.0000 C   0  0  0  0  0  0  0  0  0  0  0  0
    0.8595    2.7413    0.0000 C   0  0  0  0  0  0  0  0  0  0  0  0
    2.9650    4.2635    0.0000 C   0  0  0  0  0  0  0  0  0  0  0  0
    3.5784    5.6323    0.0000 F   0  0  0  0  0  0  0  0  0  0  0  0
    1.5962    4.8768    0.0000 F   0  0  0  0  0  0  0  0  0  0  0  0
    4.3339    3.6501    0.0000 F   0  0  0  0  0  0  0  0  0  0  0  0
    4.7226    1.8322    0.0000 C   0  0  0  0  0  0  0  0  0  0  0  0
    5.6014    0.6166    0.0000 N   0  0  0  0  0  0  0  0  0  0  0  0
    7.1014    0.6130    0.0000 C   0  0  0  0  0  0  0  0  0  0  0  0
    7.5615   -0.8147    0.0000 C   0  0  0  0  0  0  0  0  0  0  0  0
    6.3459   -1.6934    0.0000 C   0  0  0  0  0  0  0  0  0  0  0  0
    5.1345   -0.8089    0.0000 C   0  0  0  0  0  0  0  0  0  0  0  0
    6.3423   -3.1934    0.0000 N   0  0  0  0  0  0  0  0  0  0  0  0
    5.0415   -3.9403    0.0000 C   0  0  0  0  0  0  0  0  0  0  0  0
    7.6396   -3.9465    0.0000 C   0  0  0  0  0  0  0  0  0  0  0  0
  1  2  1  0
  2  3  2  0
  3  4  1  0
  4  5  2  0
  5  6  1  0
  6  7  2  0
  7  8  1  0
  8  9  1  0
  9 10  2  0
 10 11  1  0
 11 12  2  0
 12 13  1  0
 13 14  2  0
 13 15  1  0
 15 16  2  0
 16 17  1  0
 17 18  2  0
 18 19  1  0
 19 20  2  0
  5 21  1  0
 21 22  1  0
 22 23  2  0
 22 24  1  0
 24 25  2  0
 25 26  1  0
 26 27  2  0
 27 28  1  0
 28 29  2  0
 28 30  1  0
 30 31  1  0
 30 32  1  0
 30 33  1  0
 27 34  1  0
 34 35  1  0
 35 36  1  0
 36 37  1  0
 37 38  1  0
 38 39  1  0
 38 40  1  6
 40 41  1  0
 40 42  1  0
  7  2  1  0
 14  9  1  0
 20 15  1  0
 29 24  1  0
 39 35  1  0
M  END
>  <BrandName>  (72) 


>  <Applicants>  (72) 
Innovive Pharmaceuticals

>  <CHEMBL_ID>  (72) 
CHEMBL206834

>  <Canonical_Smiles>  (72) 
Cc1ccc(cc1Nc2nccc(n2)c3cncnc3)NC(=O)c4ccc(c(c4)C(F)(F)F)CN5CC[C@@H](C5)N(C)C

>  <Chirality>  (72) 
Single Stereoisomer

>  <First_Approval>  (72) 
nan

>  <Phase>  (72) 
2.0

>  <SC_Patent>  (72) 
nan

>  <Synonyms>  (72) 
BAFETINIB | CNS-9 | INNO-406 | NS-187

>  <Withdrawn>  (72) 
{''}

>  <Indications>  (72) 
nan

>  <Type>  (72) 
2

>  <targets_id>  (72) 
P07948|P00519

>  <Inchi>  (72) 
InChI=1S/C30H31F3N8O/c1-19-4-7-23(13-27(19)39-29-36-10-8-26(38-29)22-14-34-18-35-15-22)37-28(42)20-5-6-21(25(12-20)30(31,32)33)16-41-11-9-24(17-41)40(2)3/h4-8,10,12-15,18,24H,9,11,16-17H2,1-3H3,(H,37,42)(H,36,38,39)/t24-/m0/s1

>  <stdInchikey>  (72) 
ZGBAJMQHJDFTQJ-DEOSSOPVSA-N

>  <csid>  (72) 
9562515

>  <Links>  (72) 
|http://www.chemspider.com/Chemical-Structure.9562515.html|https://www.ebi.ac.uk/chembldb/compound/inspect/CHEMBL206834|https://pubchem.ncbi.nlm.nih.gov/compound/11387605|https://go.drugbank.com/drugs/DB11851|https://www.rcsb.org/ligand/406|https://www.ebi.ac.uk/pdbe-srv/pdbechem/chemicalCompound/show/406|https://www.guidetopharmacology.org/GRAC/LigandDisplayForward?7906|https://zinc15.docking.org/substances/ZINC000022940637|https://precision.fda.gov/uniisearch/srs/unii/NVW4Z03I9B|https://www.bindingdb.org/bind/chemsearch/marvin/MolStructure.jsp?monomerid=50178612

>  <LinkName>  (72) 
|ChemSpider|ChEMBL|PubChem|DrugBank|RCSB|PDBe|Guide to Pharmacology|ZINC|FDA SRS|BindingDB

>  <lig_pdb_ID>  (72) 
406

>  <pdb_IDs>  (72) 
2e2b

>  <indicationDB>  (72) 


>  <uniprotId>  (72) 


>  <indicationG2P>  (72) 
None

>  <MW>  (72) 
576.3

>  <HBA>  (72) 
8

>  <HBD>  (72) 
2

>  <NRB>  (72) 
8

>  <TPSA>  (72) 
99.2

>  <LogP>  (72) 
5.4

>  <RoF>  (72) 
2

>  <Melting point>  (72) 
nan

>  <Targets>  (72) 
LYN; ABL1

>  <Kinase families>  (72) 
Tyr

>  <FDA_approved>  (72) 


$$$$
Spebrutinib
     RDKit          2D

 31 33  0  0  0  0  0  0  0  0999 V2000
  -11.1890    2.2147    0.0000 C   0  0  0  0  0  0  0  0  0  0  0  0
   -9.6892    2.2381    0.0000 O   0  0  0  0  0  0  0  0  0  0  0  0
   -8.9191    0.9508    0.0000 C   0  0  0  0  0  0  0  0  0  0  0  0
   -7.4193    0.9742    0.0000 C   0  0  0  0  0  0  0  0  0  0  0  0
   -6.6492   -0.3130    0.0000 O   0  0  0  0  0  0  0  0  0  0  0  0
   -5.1493   -0.2897    0.0000 C   0  0  0  0  0  0  0  0  0  0  0  0
   -4.4196    1.0209    0.0000 C   0  0  0  0  0  0  0  0  0  0  0  0
   -2.9198    1.0442    0.0000 C   0  0  0  0  0  0  0  0  0  0  0  0
   -2.1497   -0.2430    0.0000 C   0  0  0  0  0  0  0  0  0  0  0  0
   -2.8794   -1.5536    0.0000 C   0  0  0  0  0  0  0  0  0  0  0  0
   -4.3792   -1.5769    0.0000 C   0  0  0  0  0  0  0  0  0  0  0  0
   -0.6499   -0.2197    0.0000 N   0  0  0  0  0  0  0  0  0  0  0  0
    0.1202   -1.5069    0.0000 C   0  0  0  0  0  0  0  0  0  0  0  0
   -0.6095   -2.8174    0.0000 N   0  0  0  0  0  0  0  0  0  0  0  0
    0.1607   -4.1046    0.0000 C   0  0  0  0  0  0  0  0  0  0  0  0
    1.6605   -4.0813    0.0000 C   0  0  0  0  0  0  0  0  0  0  0  0
    2.3902   -2.7707    0.0000 C   0  0  0  0  0  0  0  0  0  0  0  0
    1.6201   -1.4835    0.0000 N   0  0  0  0  0  0  0  0  0  0  0  0
    3.8900   -2.7474    0.0000 N   0  0  0  0  0  0  0  0  0  0  0  0
    4.6197   -1.4368    0.0000 C   0  0  0  0  0  0  0  0  0  0  0  0
    6.1195   -1.4135    0.0000 C   0  0  0  0  0  0  0  0  0  0  0  0
    6.8492   -0.1030    0.0000 C   0  0  0  0  0  0  0  0  0  0  0  0
    6.0791    1.1843    0.0000 C   0  0  0  0  0  0  0  0  0  0  0  0
    4.5793    1.1609    0.0000 C   0  0  0  0  0  0  0  0  0  0  0  0
    3.8496   -0.1496    0.0000 C   0  0  0  0  0  0  0  0  0  0  0  0
    3.8091    2.4481    0.0000 N   0  0  0  0  0  0  0  0  0  0  0  0
    4.5388    3.7587    0.0000 C   0  0  0  0  0  0  0  0  0  0  0  0
    6.0387    3.7820    0.0000 O   0  0  0  0  0  0  0  0  0  0  0  0
    3.7687    5.0459    0.0000 C   0  0  0  0  0  0  0  0  0  0  0  0
    4.4984    6.3564    0.0000 C   0  0  0  0  0  0  0  0  0  0  0  0
    2.4306   -5.3685    0.0000 F   0  0  0  0  0  0  0  0  0  0  0  0
  1  2  1  0
  2  3  1  0
  3  4  1  0
  4  5  1  0
  5  6  1  0
  6  7  2  0
  7  8  1  0
  8  9  2  0
  9 10  1  0
 10 11  2  0
  9 12  1  0
 12 13  1  0
 13 14  2  0
 14 15  1  0
 15 16  2  0
 16 17  1  0
 17 18  2  0
 17 19  1  0
 19 20  1  0
 20 21  2  0
 21 22  1  0
 22 23  2  0
 23 24  1  0
 24 25  2  0
 24 26  1  0
 26 27  1  0
 27 28  2  0
 27 29  1  0
 29 30  2  0
 16 31  1  0
 11  6  1  0
 18 13  1  0
 25 20  1  0
M  END
>  <BrandName>  (73) 


>  <Applicants>  (73) 
Celgene

>  <CHEMBL_ID>  (73) 
CHEMBL3301625

>  <Canonical_Smiles>  (73) 
COCCOc1ccc(cc1)Nc2ncc(c(n2)Nc3cccc(c3)NC(=O)C=C)F

>  <Chirality>  (73) 
Achiral Molecule

>  <First_Approval>  (73) 
nan

>  <Phase>  (73) 
2.0

>  <SC_Patent>  (73) 
nan

>  <Synonyms>  (73) 
AVL-292 | BTK INHIBITOR CC-292 | CC-292 | ESPEBRUTINIB | SPEBRUTINIB

>  <Withdrawn>  (73) 
nan

>  <Indications>  (73) 
nan

>  <Type>  (73) 
nan

>  <targets_id>  (73) 
Q06187

>  <Inchi>  (73) 
InChI=1S/C22H22FN5O3/c1-3-20(29)25-16-5-4-6-17(13-16)26-21-19(23)14-24-22(28-21)27-15-7-9-18(10-8-15)31-12-11-30-2/h3-10,13-14H,1,11-12H2,2H3,(H,25,29)(H2,24,26,27,28)

>  <stdInchikey>  (73) 
KXBDTLQSDKGAEB-UHFFFAOYSA-N

>  <csid>  (73) 
29361342

>  <Links>  (73) 
|http://www.chemspider.com/Chemical-Structure.29361342.html|https://www.ebi.ac.uk/chembldb/compound/inspect/CHEMBL3301625|https://pubchem.ncbi.nlm.nih.gov/compound/59174488|https://go.drugbank.com/drugs/DB11764|https://www.guidetopharmacology.org/GRAC/LigandDisplayForward?7837|https://zinc15.docking.org/substances/ZINC000072319585|https://precision.fda.gov/uniisearch/srs/unii/DRU6NG543J

>  <LinkName>  (73) 
|ChemSpider|ChEMBL|PubChem|DrugBank|Guide to Pharmacology|ZINC|FDA SRS

>  <lig_pdb_ID>  (73) 


>  <pdb_IDs>  (73) 


>  <indicationDB>  (73) 


>  <uniprotId>  (73) 


>  <indicationG2P>  (73) 
None

>  <MW>  (73) 
423.2

>  <HBA>  (73) 
7

>  <HBD>  (73) 
3

>  <NRB>  (73) 
10

>  <TPSA>  (73) 
97.4

>  <LogP>  (73) 
4.3

>  <RoF>  (73) 
0

>  <Melting point>  (73) 
nan

>  <Targets>  (73) 
BTK

>  <Kinase families>  (73) 
Tyr

>  <FDA_approved>  (73) 


$$$$
Enbezotinib
     RDKit          2D

 31 36  0  0  0  0  0  0  0  0999 V2000
    0.8645   -5.6129    0.0000 C   0  0  0  0  0  0  0  0  0  0  0  0
    0.9177   -4.1138    0.0000 C   0  0  0  0  0  0  0  0  0  0  0  0
    2.3859   -3.8067    0.0000 C   0  0  0  0  0  0  0  0  0  0  0  0
    3.5432   -2.8524    0.0000 N   0  0  0  0  0  0  0  0  0  0  0  0
    4.1245   -1.4696    0.0000 C   0  0  0  0  0  0  0  0  0  0  0  0
    5.6062   -1.7031    0.0000 O   0  0  0  0  0  0  0  0  0  0  0  0
    3.9966    0.0249    0.0000 C   0  0  0  0  0  0  0  0  0  0  0  0
    5.4483    0.4026    0.0000 C   0  0  0  0  0  0  0  0  0  0  0  0
    5.5376    1.9000    0.0000 N   0  0  0  0  0  0  0  0  0  0  0  0
    4.1412    2.4477    0.0000 N   0  0  0  0  0  0  0  0  0  0  0  0
    1.9639    3.9112    0.0000 C   0  0  0  0  0  0  0  0  0  0  0  0
    0.5006    3.5814    0.0000 C   0  0  0  0  0  0  0  0  0  0  0  0
    0.3871    2.0857    0.0000 C   0  0  0  0  0  0  0  0  0  0  0  0
    1.8861    2.0325    0.0000 N   0  0  0  0  0  0  0  0  0  0  0  0
    3.1888    1.2888    0.0000 C   0  0  0  0  0  0  0  0  0  0  0  0
   -0.9650    1.4361    0.0000 N   0  0  0  0  0  0  0  0  0  0  0  0
   -1.8603    0.2326    0.0000 C   0  0  0  0  0  0  0  0  0  0  0  0
   -2.0938   -1.2491    0.0000 C   0  0  0  0  0  0  0  0  0  0  0  0
   -3.5649   -0.9561    0.0000 C   0  0  0  0  0  0  0  0  0  0  0  0
   -4.5541   -2.0837    0.0000 C   0  0  0  0  0  0  0  0  0  0  0  0
   -6.0252   -1.7907    0.0000 F   0  0  0  0  0  0  0  0  0  0  0  0
   -4.0723   -3.5042    0.0000 C   0  0  0  0  0  0  0  0  0  0  0  0
   -2.6012   -3.7971    0.0000 N   0  0  0  0  0  0  0  0  0  0  0  0
   -1.6119   -2.6696    0.0000 C   0  0  0  0  0  0  0  0  0  0  0  0
   -0.5251   -3.7034    0.0000 O   0  0  0  0  0  0  0  0  0  0  0  0
   -2.2035    2.2823    0.0000 C   0  0  0  0  0  0  0  0  0  0  0  0
   -3.6611    1.9280    0.0000 C   0  0  0  0  0  0  0  0  0  0  0  0
   -4.4484    3.2048    0.0000 C   0  0  0  0  0  0  0  0  0  0  0  0
   -3.4775    4.3481    0.0000 C   0  0  0  0  0  0  0  0  0  0  0  0
   -2.0901    3.7780    0.0000 C   0  0  0  0  0  0  0  0  0  0  0  0
   -0.7380    4.4275    0.0000 O   0  0  0  0  0  0  0  0  0  0  0  0
  2  1  1  6
  2  3  1  0
  3  4  1  0
  4  5  1  0
  5  6  2  0
  5  7  1  0
  7  8  1  0
  8  9  2  0
  9 10  1  0
 10 11  1  0
 11 12  2  0
 12 13  1  0
 13 14  2  0
 14 15  1  0
 13 16  1  0
 16 17  1  0
 17 18  1  0
 18 19  2  0
 19 20  1  0
 20 21  1  0
 20 22  2  0
 22 23  1  0
 23 24  2  0
 24 25  1  0
 16 26  1  0
 26 27  1  6
 27 28  1  0
 28 29  1  0
 30 29  1  6
 30 31  1  0
 25  2  1  0
 30 26  1  0
 15  7  2  0
 24 18  1  0
 15 10  1  0
 31 12  1  0
M  END
>  <BrandName>  (74) 


>  <Applicants>  (74) 
TP Therapeutics

>  <CHEMBL_ID>  (74) 
CHEMBL5095062

>  <Canonical_Smiles>  (74) 
C[C@H]1CNC(=O)c2cnn3cc4c(nc23)N(Cc2cc(F)cnc2O1)[C@@H]1CCC[C@@H]1O4

>  <Chirality>  (74) 
Single Stereoisomer

>  <First_Approval>  (74) 
nan

>  <Phase>  (74) 
2.0

>  <SC_Patent>  (74) 
nan

>  <Synonyms>  (74) 
ENBEZOTINIB | TPX-0046

>  <Withdrawn>  (74) 
nan

>  <Indications>  (74) 
nan

>  <Type>  (74) 
nan

>  <targets_id>  (74) 
nan

>  <Inchi>  (74) 
InChI=1S/C21H21FN6O3/c1-11-6-23-20(29)14-8-25-28-10-17-19(26-18(14)28)27(15-3-2-4-16(15)31-17)9-12-5-13(22)7-24-21(12)30-11/h5,7-8,10-11,15-16H,2-4,6,9H2,1H3,(H,23,29)/t11-,15+,16-/m0/s1

>  <stdInchikey>  (74) 
BYYQDEOVMILBQT-XZJROXQQSA-N

>  <csid>  (74) 
115010417

>  <Links>  (74) 
|http://www.chemspider.com/Chemical-Structure.115010417.html|https://www.ebi.ac.uk/chembldb/compound/inspect/CHEMBL5095062|https://pubchem.ncbi.nlm.nih.gov/compound/146662764

>  <LinkName>  (74) 
|ChemSpider|ChEMBL|PubChem

>  <lig_pdb_ID>  (74) 


>  <pdb_IDs>  (74) 


>  <indicationDB>  (74) 


>  <uniprotId>  (74) 


>  <indicationG2P>  (74) 


>  <MW>  (74) 
424.2

>  <HBA>  (74) 
8

>  <HBD>  (74) 
1

>  <NRB>  (74) 
0

>  <TPSA>  (74) 
93.9

>  <LogP>  (74) 
2.1

>  <RoF>  (74) 
0

>  <Melting point>  (74) 
nan

>  <Targets>  (74) 
nan

>  <Kinase families>  (74) 


>  <FDA_approved>  (74) 


$$$$
Camonsertib
     RDKit          2D

 30 35  0  0  0  0  0  0  0  0999 V2000
   -2.9409    2.6321    0.0000 C   0  0  0  0  0  0  0  0  0  0  0  0
   -1.7022    3.4780    0.0000 C   0  0  0  0  0  0  0  0  0  0  0  0
   -1.8154    4.9738    0.0000 C   0  0  0  0  0  0  0  0  0  0  0  0
   -0.5767    5.8197    0.0000 O   0  0  0  0  0  0  0  0  0  0  0  0
    0.7752    5.1699    0.0000 C   0  0  0  0  0  0  0  0  0  0  0  0
    0.8885    3.6742    0.0000 C   0  0  0  0  0  0  0  0  0  0  0  0
   -0.3502    2.8283    0.0000 N   0  0  0  0  0  0  0  0  0  0  0  0
   -0.2369    1.3326    0.0000 C   0  0  0  0  0  0  0  0  0  0  0  0
    1.1150    0.6828    0.0000 C   0  0  0  0  0  0  0  0  0  0  0  0
    1.2283   -0.8129    0.0000 C   0  0  0  0  0  0  0  0  0  0  0  0
    2.5802   -1.4627    0.0000 C   0  0  0  0  0  0  0  0  0  0  0  0
    1.7056   -2.6813    0.0000 O   0  0  0  0  0  0  0  0  0  0  0  0
    2.9854   -0.0184    0.0000 C   0  0  0  0  0  0  0  0  0  0  0  0
    4.4387    0.3528    0.0000 C   0  0  0  0  0  0  0  0  0  0  0  0
    5.9356    0.2568    0.0000 C   0  0  0  0  0  0  0  0  0  0  0  0
    6.3069   -1.1965    0.0000 C   0  0  0  0  0  0  0  0  0  0  0  0
    5.0394   -1.9987    0.0000 C   0  0  0  0  0  0  0  0  0  0  0  0
    3.6284   -2.5357    0.0000 C   0  0  0  0  0  0  0  0  0  0  0  0
    3.8848   -1.0412    0.0000 O   0  0  0  0  0  0  0  0  0  0  0  0
   -0.0104   -1.6589    0.0000 C   0  0  0  0  0  0  0  0  0  0  0  0
   -0.2106   -3.1455    0.0000 C   0  0  0  0  0  0  0  0  0  0  0  0
   -1.6863   -3.4145    0.0000 N   0  0  0  0  0  0  0  0  0  0  0  0
   -2.3981   -2.0941    0.0000 N   0  0  0  0  0  0  0  0  0  0  0  0
   -3.8847   -1.8939    0.0000 C   0  0  0  0  0  0  0  0  0  0  0  0
   -4.9204   -2.9789    0.0000 C   0  0  0  0  0  0  0  0  0  0  0  0
   -6.2724   -2.3292    0.0000 C   0  0  0  0  0  0  0  0  0  0  0  0
   -6.0722   -0.8426    0.0000 N   0  0  0  0  0  0  0  0  0  0  0  0
   -4.5965   -0.5736    0.0000 N   0  0  0  0  0  0  0  0  0  0  0  0
   -1.3624   -1.0091    0.0000 C   0  0  0  0  0  0  0  0  0  0  0  0
   -1.4756    0.4866    0.0000 N   0  0  0  0  0  0  0  0  0  0  0  0
  2  1  1  6
  2  3  1  0
  3  4  1  0
  4  5  1  0
  5  6  1  0
  6  7  1  0
  7  8  1  0
  8  9  2  0
  9 10  1  0
 10 11  1  0
 11 12  1  1
 11 13  1  0
 14 13  1  1
 14 15  1  0
 15 16  1  0
 17 16  1  1
 17 18  1  0
 17 19  1  0
 10 20  2  0
 20 21  1  0
 21 22  2  0
 22 23  1  0
 23 24  1  0
 24 25  1  0
 25 26  2  0
 26 27  1  0
 27 28  1  0
 23 29  1  0
 29 30  2  0
  7  2  1  0
 30  8  1  0
 18 11  1  0
 29 20  1  0
 19 14  1  0
 28 24  2  0
M  END
>  <BrandName>  (75) 


>  <Applicants>  (75) 
Repare Therapeutics

>  <CHEMBL_ID>  (75) 
CHEMBL5095260

>  <Canonical_Smiles>  (75) 
C[C@@H]1COCCN1c1cc([C@]2(O)C[C@H]3CC[C@@H](C2)O3)c2cnn(-c3cc[nH]n3)c2n1

>  <Chirality>  (75) 
Single Stereoisomer

>  <First_Approval>  (75) 
nan

>  <Phase>  (75) 
2.0

>  <SC_Patent>  (75) 
nan

>  <Synonyms>  (75) 
CAMONSERTIB | RP 3500 | RP-3500 | RP3500

>  <Withdrawn>  (75) 
{''}

>  <Indications>  (75) 
nan

>  <Type>  (75) 
nan

>  <targets_id>  (75) 
nan

>  <Inchi>  (75) 
InChI=1S/C21H26N6O3/c1-13-12-29-7-6-26(13)19-8-17(21(28)9-14-2-3-15(10-21)30-14)16-11-23-27(20(16)24-19)18-4-5-22-25-18/h4-5,8,11,13-15,28H,2-3,6-7,9-10,12H2,1H3,(H,22,25)/t13-,14-,15+,21+/m1/s1

>  <stdInchikey>  (75) 
YIHHYCIYAIVQKX-MBIULKOWSA-N

>  <csid>  (75) 
115009619

>  <Links>  (75) 
|http://www.chemspider.com/Chemical-Structure.115009619.html|https://www.ebi.ac.uk/chembldb/compound/inspect/CHEMBL5095260

>  <LinkName>  (75) 
|ChemSpider|ChEMBL

>  <lig_pdb_ID>  (75) 


>  <pdb_IDs>  (75) 


>  <indicationDB>  (75) 


>  <uniprotId>  (75) 


>  <indicationG2P>  (75) 


>  <MW>  (75) 
410.2

>  <HBA>  (75) 
8

>  <HBD>  (75) 
2

>  <NRB>  (75) 
3

>  <TPSA>  (75) 
101.3

>  <LogP>  (75) 
1.9

>  <RoF>  (75) 
0

>  <Melting point>  (75) 
nan

>  <Targets>  (75) 
nan

>  <Kinase families>  (75) 


>  <FDA_approved>  (75) 


$$$$
Defactinib
     RDKit          2D

 35 37  0  0  0  0  0  0  0  0999 V2000
  -11.0438    0.5161    0.0000 C   0  0  0  0  0  0  0  0  0  0  0  0
   -9.6014    0.9276    0.0000 N   0  0  0  0  0  0  0  0  0  0  0  0
   -8.5238   -0.1158    0.0000 C   0  0  0  0  0  0  0  0  0  0  0  0
   -8.8887   -1.5708    0.0000 O   0  0  0  0  0  0  0  0  0  0  0  0
   -7.0813    0.2957    0.0000 C   0  0  0  0  0  0  0  0  0  0  0  0
   -6.7165    1.7506    0.0000 C   0  0  0  0  0  0  0  0  0  0  0  0
   -5.2740    2.1621    0.0000 C   0  0  0  0  0  0  0  0  0  0  0  0
   -4.1964    1.1186    0.0000 C   0  0  0  0  0  0  0  0  0  0  0  0
   -4.5613   -0.3363    0.0000 C   0  0  0  0  0  0  0  0  0  0  0  0
   -6.0038   -0.7478    0.0000 C   0  0  0  0  0  0  0  0  0  0  0  0
   -2.7540    1.5301    0.0000 N   0  0  0  0  0  0  0  0  0  0  0  0
   -1.6764    0.4867    0.0000 C   0  0  0  0  0  0  0  0  0  0  0  0
   -2.0413   -0.9683    0.0000 N   0  0  0  0  0  0  0  0  0  0  0  0
   -0.9637   -2.0117    0.0000 C   0  0  0  0  0  0  0  0  0  0  0  0
    0.4788   -1.6002    0.0000 C   0  0  0  0  0  0  0  0  0  0  0  0
    0.8437   -0.1453    0.0000 C   0  0  0  0  0  0  0  0  0  0  0  0
   -0.2339    0.8982    0.0000 N   0  0  0  0  0  0  0  0  0  0  0  0
    2.2861    0.2662    0.0000 N   0  0  0  0  0  0  0  0  0  0  0  0
    2.6510    1.7211    0.0000 C   0  0  0  0  0  0  0  0  0  0  0  0
    4.0934    2.1326    0.0000 C   0  0  0  0  0  0  0  0  0  0  0  0
    5.1710    1.0892    0.0000 C   0  0  0  0  0  0  0  0  0  0  0  0
    6.6135    1.5007    0.0000 N   0  0  0  0  0  0  0  0  0  0  0  0
    6.9783    2.9556    0.0000 C   0  0  0  0  0  0  0  0  0  0  0  0
    5.9007    3.9991    0.0000 C   0  0  0  0  0  0  0  0  0  0  0  0
    4.4583    3.5876    0.0000 N   0  0  0  0  0  0  0  0  0  0  0  0
    4.8061   -0.3658    0.0000 N   0  0  0  0  0  0  0  0  0  0  0  0
    3.3637   -0.7773    0.0000 C   0  0  0  0  0  0  0  0  0  0  0  0
    5.8837   -1.4092    0.0000 S   0  0  0  0  0  0  0  0  0  0  0  0
    6.9272   -0.3316    0.0000 O   0  0  0  0  0  0  0  0  0  0  0  0
    4.8403   -2.4868    0.0000 O   0  0  0  0  0  0  0  0  0  0  0  0
    6.9613   -2.4527    0.0000 C   0  0  0  0  0  0  0  0  0  0  0  0
    1.5564   -2.6437    0.0000 C   0  0  0  0  0  0  0  0  0  0  0  0
    2.6340   -3.6872    0.0000 F   0  0  0  0  0  0  0  0  0  0  0  0
    0.5129   -3.7213    0.0000 F   0  0  0  0  0  0  0  0  0  0  0  0
    2.5998   -1.5661    0.0000 F   0  0  0  0  0  0  0  0  0  0  0  0
  1  2  1  0
  2  3  1  0
  3  4  2  0
  3  5  1  0
  5  6  2  0
  6  7  1  0
  7  8  2  0
  8  9  1  0
  9 10  2  0
  8 11  1  0
 11 12  1  0
 12 13  2  0
 13 14  1  0
 14 15  2  0
 15 16  1  0
 16 17  2  0
 16 18  1  0
 18 19  1  0
 19 20  1  0
 20 21  2  0
 21 22  1  0
 22 23  2  0
 23 24  1  0
 24 25  2  0
 21 26  1  0
 26 27  1  0
 26 28  1  0
 28 29  2  0
 28 30  2  0
 28 31  1  0
 15 32  1  0
 32 33  1  0
 32 34  1  0
 32 35  1  0
 10  5  1  0
 17 12  1  0
 25 20  1  0
M  END
>  <BrandName>  (76) 


>  <Applicants>  (76) 
Verastem

>  <CHEMBL_ID>  (76) 
CHEMBL3137331

>  <Canonical_Smiles>  (76) 
CNC(=O)c1ccc(cc1)Nc2ncc(c(n2)NCc3c(nccn3)N(C)S(=O)(=O)C)C(F)(F)F

>  <Chirality>  (76) 
Achiral Molecule

>  <First_Approval>  (76) 
nan

>  <Phase>  (76) 
2.0

>  <SC_Patent>  (76) 
nan

>  <Synonyms>  (76) 
DEFACTINIB | PF-04554878 | VS-6063

>  <Withdrawn>  (76) 
{''}

>  <Indications>  (76) 
nan

>  <Type>  (76) 
1

>  <targets_id>  (76) 
Q05397|Q14289

>  <Inchi>  (76) 
InChI=1S/C20H21F3N8O3S/c1-24-18(32)12-4-6-13(7-5-12)29-19-28-10-14(20(21,22)23)16(30-19)27-11-15-17(26-9-8-25-15)31(2)35(3,33)34/h4-10H,11H2,1-3H3,(H,24,32)(H2,27,28,29,30)

>  <stdInchikey>  (76) 
FWLMVFUGMHIOAA-UHFFFAOYSA-N

>  <csid>  (76) 
32695161

>  <Links>  (76) 
|http://www.chemspider.com/Chemical-Structure.32695161.html|https://www.ebi.ac.uk/chembldb/compound/inspect/CHEMBL3137331|https://pubchem.ncbi.nlm.nih.gov/compound/25117126|https://go.drugbank.com/drugs/DB12282|https://www.rcsb.org/ligand/7KD|https://www.ebi.ac.uk/pdbe-srv/pdbechem/chemicalCompound/show/7KD|https://www.guidetopharmacology.org/GRAC/LigandDisplayForward?7910|https://zinc15.docking.org/substances/ZINC000103297739|https://precision.fda.gov/uniisearch/srs/unii/53O87HA2QU|https://www.bindingdb.org/bind/chemsearch/marvin/MolStructure.jsp?monomerid=418817

>  <LinkName>  (76) 
|ChemSpider|ChEMBL|PubChem|DrugBank|RCSB|PDBe|Guide to Pharmacology|ZINC|FDA SRS|BindingDB

>  <lig_pdb_ID>  (76) 
7KD

>  <pdb_IDs>  (76) 
5mah

>  <indicationDB>  (76) 


>  <uniprotId>  (76) 


>  <indicationG2P>  (76) 
None

>  <MW>  (76) 
510.1

>  <HBA>  (76) 
9

>  <HBD>  (76) 
3

>  <NRB>  (76) 
8

>  <TPSA>  (76) 
142.1

>  <LogP>  (76) 
2.4

>  <RoF>  (76) 
1

>  <Melting point>  (76) 
nan

>  <Targets>  (76) 
PTK2; PTK2B

>  <Kinase families>  (76) 
Tyr

>  <FDA_approved>  (76) 


$$$$
Dubermatinib
     RDKit          2D

 35 38  0  0  0  0  0  0  0  0999 V2000
   -9.6076   -3.4404    0.0000 C   0  0  0  0  0  0  0  0  0  0  0  0
   -8.8712   -2.1337    0.0000 N   0  0  0  0  0  0  0  0  0  0  0  0
   -9.6346   -0.8425    0.0000 C   0  0  0  0  0  0  0  0  0  0  0  0
   -8.8982    0.4643    0.0000 C   0  0  0  0  0  0  0  0  0  0  0  0
   -7.3982    0.4799    0.0000 N   0  0  0  0  0  0  0  0  0  0  0  0
   -6.6348   -0.8113    0.0000 C   0  0  0  0  0  0  0  0  0  0  0  0
   -7.3712   -2.1181    0.0000 C   0  0  0  0  0  0  0  0  0  0  0  0
   -6.6618    1.7866    0.0000 C   0  0  0  0  0  0  0  0  0  0  0  0
   -5.1619    1.8022    0.0000 C   0  0  0  0  0  0  0  0  0  0  0  0
   -4.3984    0.5110    0.0000 C   0  0  0  0  0  0  0  0  0  0  0  0
   -2.8985    0.5266    0.0000 C   0  0  0  0  0  0  0  0  0  0  0  0
   -2.1620    1.8334    0.0000 C   0  0  0  0  0  0  0  0  0  0  0  0
   -2.9255    3.1246    0.0000 C   0  0  0  0  0  0  0  0  0  0  0  0
   -4.4254    3.1090    0.0000 C   0  0  0  0  0  0  0  0  0  0  0  0
   -0.6621    1.8490    0.0000 N   0  0  0  0  0  0  0  0  0  0  0  0
    0.1014    0.5578    0.0000 C   0  0  0  0  0  0  0  0  0  0  0  0
   -0.6351   -0.7489    0.0000 N   0  0  0  0  0  0  0  0  0  0  0  0
    0.1284   -2.0401    0.0000 C   0  0  0  0  0  0  0  0  0  0  0  0
    1.6283   -2.0245    0.0000 C   0  0  0  0  0  0  0  0  0  0  0  0
    2.3647   -0.7178    0.0000 C   0  0  0  0  0  0  0  0  0  0  0  0
    1.6013    0.5734    0.0000 N   0  0  0  0  0  0  0  0  0  0  0  0
    3.8646   -0.7022    0.0000 N   0  0  0  0  0  0  0  0  0  0  0  0
    4.6011    0.6046    0.0000 C   0  0  0  0  0  0  0  0  0  0  0  0
    3.8376    1.8958    0.0000 C   0  0  0  0  0  0  0  0  0  0  0  0
    4.5741    3.2025    0.0000 C   0  0  0  0  0  0  0  0  0  0  0  0
    6.0740    3.2181    0.0000 C   0  0  0  0  0  0  0  0  0  0  0  0
    6.8375    1.9269    0.0000 C   0  0  0  0  0  0  0  0  0  0  0  0
    6.1010    0.6202    0.0000 C   0  0  0  0  0  0  0  0  0  0  0  0
    6.8645   -0.6710    0.0000 S   0  0  0  0  0  0  0  0  0  0  0  0
    8.1557    0.0925    0.0000 O   0  0  0  0  0  0  0  0  0  0  0  0
    5.5733   -1.4345    0.0000 O   0  0  0  0  0  0  0  0  0  0  0  0
    7.6279   -1.9622    0.0000 N   0  0  0  0  0  0  0  0  0  0  0  0
    9.1279   -1.9466    0.0000 C   0  0  0  0  0  0  0  0  0  0  0  0
    6.8915   -3.2689    0.0000 C   0  0  0  0  0  0  0  0  0  0  0  0
    2.3917   -3.3157    0.0000 Cl  0  0  0  0  0  0  0  0  0  0  0  0
  1  2  1  0
  2  3  1  0
  3  4  1  0
  4  5  1  0
  5  6  1  0
  6  7  1  0
  5  8  1  0
  8  9  1  0
  9 10  2  0
 10 11  1  0
 11 12  2  0
 12 13  1  0
 13 14  2  0
 12 15  1  0
 15 16  1  0
 16 17  2  0
 17 18  1  0
 18 19  2  0
 19 20  1  0
 20 21  2  0
 20 22  1  0
 22 23  1  0
 23 24  2  0
 24 25  1  0
 25 26  2  0
 26 27  1  0
 27 28  2  0
 28 29  1  0
 29 30  2  0
 29 31  2  0
 29 32  1  0
 32 33  1  0
 32 34  1  0
 19 35  1  0
  7  2  1  0
 14  9  1  0
 21 16  1  0
 28 23  1  0
M  END
>  <BrandName>  (77) 


>  <Applicants>  (77) 
Tolero Pharmaceuticals

>  <CHEMBL_ID>  (77) 
CHEMBL2022968

>  <Canonical_Smiles>  (77) 
CN1CCN(CC1)Cc2ccc(cc2)Nc3ncc(c(n3)Nc4ccccc4S(=O)(=O)N(C)C)Cl

>  <Chirality>  (77) 
Achiral Molecule

>  <First_Approval>  (77) 
nan

>  <Phase>  (77) 
2.0

>  <SC_Patent>  (77) 
nan

>  <Synonyms>  (77) 
DUBERMATINIB | HCL-2084 | TP 0903 | TP-0903 | TP0903

>  <Withdrawn>  (77) 
{''}

>  <Indications>  (77) 
nan

>  <Type>  (77) 
nan

>  <targets_id>  (77) 
nan

>  <Inchi>  (77) 
InChI=1S/C24H30ClN7O2S/c1-30(2)35(33,34)22-7-5-4-6-21(22)28-23-20(25)16-26-24(29-23)27-19-10-8-18(9-11-19)17-32-14-12-31(3)13-15-32/h4-11,16H,12-15,17H2,1-3H3,(H2,26,27,28,29)

>  <stdInchikey>  (77) 
YUAALFPUEOYPNX-UHFFFAOYSA-N

>  <csid>  (77) 
28516684

>  <Links>  (77) 
|http://www.chemspider.com/Chemical-Structure.28516684.html|https://www.ebi.ac.uk/chembldb/compound/inspect/CHEMBL2022968|https://pubchem.ncbi.nlm.nih.gov/compound/56839178|https://go.drugbank.com/drugs/DB15187|https://www.guidetopharmacology.org/GRAC/LigandDisplayForward?8863|https://zinc15.docking.org/substances/ZINC000084617535|https://precision.fda.gov/uniisearch/srs/unii/14D65TV20J|https://www.bindingdb.org/bind/chemsearch/marvin/MolStructure.jsp?monomerid=50382425

>  <LinkName>  (77) 
|ChemSpider|ChEMBL|PubChem|DrugBank|Guide to Pharmacology|ZINC|FDA SRS|BindingDB

>  <lig_pdb_ID>  (77) 


>  <pdb_IDs>  (77) 


>  <indicationDB>  (77) 


>  <uniprotId>  (77) 


>  <indicationG2P>  (77) 
None

>  <MW>  (77) 
515.2

>  <HBA>  (77) 
8

>  <HBD>  (77) 
2

>  <NRB>  (77) 
8

>  <TPSA>  (77) 
93.7

>  <LogP>  (77) 
3.6

>  <RoF>  (77) 
1

>  <Melting point>  (77) 
nan

>  <Targets>  (77) 
nan

>  <Kinase families>  (77) 


>  <FDA_approved>  (77) 


$$$$
Mavelertinib
     RDKit          2D

 30 33  0  0  0  0  0  0  0  0999 V2000
   -3.1480    6.2495    0.0000 C   0  0  0  0  0  0  0  0  0  0  0  0
   -2.8429    4.7808    0.0000 N   0  0  0  0  0  0  0  0  0  0  0  0
   -3.8516    3.6707    0.0000 C   0  0  0  0  0  0  0  0  0  0  0  0
   -3.1076    2.3683    0.0000 C   0  0  0  0  0  0  0  0  0  0  0  0
   -1.6389    2.6734    0.0000 C   0  0  0  0  0  0  0  0  0  0  0  0
   -1.4753    4.1645    0.0000 N   0  0  0  0  0  0  0  0  0  0  0  0
   -0.5288    1.6647    0.0000 O   0  0  0  0  0  0  0  0  0  0  0  0
    0.8999    2.1217    0.0000 C   0  0  0  0  0  0  0  0  0  0  0  0
   -3.7239    1.0007    0.0000 N   0  0  0  0  0  0  0  0  0  0  0  0
   -2.8478   -0.2168    0.0000 C   0  0  0  0  0  0  0  0  0  0  0  0
   -3.4641   -1.5843    0.0000 C   0  0  0  0  0  0  0  0  0  0  0  0
   -2.5880   -2.8018    0.0000 C   0  0  0  0  0  0  0  0  0  0  0  0
   -1.0955   -2.6519    0.0000 N   0  0  0  0  0  0  0  0  0  0  0  0
   -0.4791   -1.2843    0.0000 C   0  0  0  0  0  0  0  0  0  0  0  0
   -1.3553   -0.0668    0.0000 N   0  0  0  0  0  0  0  0  0  0  0  0
    1.0133   -1.1343    0.0000 N   0  0  0  0  0  0  0  0  0  0  0  0
    1.7692    0.1613    0.0000 C   0  0  0  0  0  0  0  0  0  0  0  0
    3.2350   -0.1573    0.0000 C   0  0  0  0  0  0  0  0  0  0  0  0
    3.3850   -1.6498    0.0000 C   0  0  0  0  0  0  0  0  0  0  0  0
    2.0119   -2.2536    0.0000 C   0  0  0  0  0  0  0  0  0  0  0  0
    4.6806   -2.4057    0.0000 F   0  0  0  0  0  0  0  0  0  0  0  0
    4.3543    0.8413    0.0000 N   0  0  0  0  0  0  0  0  0  0  0  0
    5.7788    0.3713    0.0000 C   0  0  0  0  0  0  0  0  0  0  0  0
    6.0839   -1.0973    0.0000 O   0  0  0  0  0  0  0  0  0  0  0  0
    6.8980    1.3699    0.0000 C   0  0  0  0  0  0  0  0  0  0  0  0
    8.3225    0.8999    0.0000 C   0  0  0  0  0  0  0  0  0  0  0  0
   -3.4752   -4.0113    0.0000 N   0  0  0  0  0  0  0  0  0  0  0  0
   -4.8996   -3.5413    0.0000 C   0  0  0  0  0  0  0  0  0  0  0  0
   -4.8928   -2.0413    0.0000 N   0  0  0  0  0  0  0  0  0  0  0  0
   -3.0182   -5.4400    0.0000 C   0  0  0  0  0  0  0  0  0  0  0  0
  1  2  1  0
  2  3  1  0
  3  4  2  0
  4  5  1  0
  5  6  2  0
  5  7  1  0
  7  8  1  0
  4  9  1  0
  9 10  1  0
 10 11  2  0
 11 12  1  0
 12 13  2  0
 13 14  1  0
 14 15  2  0
 14 16  1  0
 16 17  1  0
 17 18  1  0
 18 19  1  0
 19 20  1  0
 19 21  1  6
 18 22  1  1
 22 23  1  0
 23 24  2  0
 23 25  1  0
 25 26  2  0
 12 27  1  0
 27 28  1  0
 28 29  2  0
 27 30  1  0
  6  2  1  0
 15 10  1  0
 29 11  1  0
 20 16  1  0
M  END
>  <BrandName>  (78) 


>  <Applicants>  (78) 
Pfizer

>  <CHEMBL_ID>  (78) 
CHEMBL3989970

>  <Canonical_Smiles>  (78) 
Cn1cc(c(n1)OC)Nc2c3c(nc(n2)N4C[C@H]([C@@H](C4)F)NC(=O)C=C)n(cn3)C

>  <Chirality>  (78) 
Single Stereoisomer

>  <First_Approval>  (78) 
nan

>  <Phase>  (78) 
2.0

>  <SC_Patent>  (78) 
nan

>  <Synonyms>  (78) 
EGFR T790M INHIBITOR PF-06747775 | MAVELERTINIB | PF-06747775

>  <Withdrawn>  (78) 
nan

>  <Indications>  (78) 
nan

>  <Type>  (78) 
nan

>  <targets_id>  (78) 
nan

>  <Inchi>  (78) 
InChI=1S/C18H22FN9O2/c1-5-13(29)21-11-8-28(6-10(11)19)18-23-15(14-16(24-18)26(2)9-20-14)22-12-7-27(3)25-17(12)30-4/h5,7,9-11H,1,6,8H2,2-4H3,(H,21,29)(H,22,23,24)/t10-,11-/m1/s1

>  <stdInchikey>  (78) 
JYIUNVOCEFIUIU-GHMZBOCLSA-N

>  <csid>  (78) 
49070873

>  <Links>  (78) 
|http://www.chemspider.com/Chemical-Structure.49070873.html|https://www.ebi.ac.uk/chembldb/compound/inspect/CHEMBL3989970|https://pubchem.ncbi.nlm.nih.gov/compound/91668194|https://go.drugbank.com/drugs/DB16228|https://www.guidetopharmacology.org/GRAC/LigandDisplayForward?9765|https://zinc15.docking.org/substances/ZINC000231225813|https://precision.fda.gov/uniisearch/srs/unii/YXX2180047|https://www.bindingdb.org/bind/chemsearch/marvin/MolStructure.jsp?monomerid=50450870

>  <LinkName>  (78) 
|ChemSpider|ChEMBL|PubChem|DrugBank|Guide to Pharmacology|ZINC|FDA SRS|BindingDB

>  <lig_pdb_ID>  (78) 


>  <pdb_IDs>  (78) 


>  <indicationDB>  (78) 


>  <uniprotId>  (78) 


>  <indicationG2P>  (78) 
None

>  <MW>  (78) 
415.2

>  <HBA>  (78) 
10

>  <HBD>  (78) 
2

>  <NRB>  (78) 
6

>  <TPSA>  (78) 
115.0

>  <LogP>  (78) 
0.7

>  <RoF>  (78) 
0

>  <Melting point>  (78) 
nan

>  <Targets>  (78) 
nan

>  <Kinase families>  (78) 


>  <FDA_approved>  (78) 


$$$$
Voruciclib
     RDKit          2D

 32 35  0  0  0  0  0  0  0  0999 V2000
   -4.1207   -4.8903    0.0000 C   0  0  0  0  0  0  0  0  0  0  0  0
   -3.3075   -3.6298    0.0000 N   0  0  0  0  0  0  0  0  0  0  0  0
   -1.8098   -3.5469    0.0000 C   0  0  0  0  0  0  0  0  0  0  0  0
   -1.4259   -2.0968    0.0000 C   0  0  0  0  0  0  0  0  0  0  0  0
   -2.6863   -1.2836    0.0000 C   0  0  0  0  0  0  0  0  0  0  0  0
   -3.8492   -2.2311    0.0000 C   0  0  0  0  0  0  0  0  0  0  0  0
   -5.2993   -1.8471    0.0000 C   0  0  0  0  0  0  0  0  0  0  0  0
   -6.3568   -2.9110    0.0000 O   0  0  0  0  0  0  0  0  0  0  0  0
   -2.7693    0.2141    0.0000 C   0  0  0  0  0  0  0  0  0  0  0  0
   -4.1078    0.8911    0.0000 C   0  0  0  0  0  0  0  0  0  0  0  0
   -4.1908    2.3888    0.0000 C   0  0  0  0  0  0  0  0  0  0  0  0
   -2.9352    3.2095    0.0000 C   0  0  0  0  0  0  0  0  0  0  0  0
   -1.5967    2.5325    0.0000 C   0  0  0  0  0  0  0  0  0  0  0  0
   -1.5137    1.0348    0.0000 C   0  0  0  0  0  0  0  0  0  0  0  0
   -0.1752    0.3578    0.0000 O   0  0  0  0  0  0  0  0  0  0  0  0
    1.0804    1.1785    0.0000 C   0  0  0  0  0  0  0  0  0  0  0  0
    0.9974    2.6762    0.0000 C   0  0  0  0  0  0  0  0  0  0  0  0
   -0.3411    3.3532    0.0000 C   0  0  0  0  0  0  0  0  0  0  0  0
   -0.4241    4.8509    0.0000 O   0  0  0  0  0  0  0  0  0  0  0  0
    2.4189    0.5015    0.0000 C   0  0  0  0  0  0  0  0  0  0  0  0
    2.5019   -0.9962    0.0000 C   0  0  0  0  0  0  0  0  0  0  0  0
    3.8404   -1.6732    0.0000 C   0  0  0  0  0  0  0  0  0  0  0  0
    5.0960   -0.8525    0.0000 C   0  0  0  0  0  0  0  0  0  0  0  0
    5.0130    0.6452    0.0000 C   0  0  0  0  0  0  0  0  0  0  0  0
    3.6745    1.3222    0.0000 C   0  0  0  0  0  0  0  0  0  0  0  0
    3.5915    2.8199    0.0000 Cl  0  0  0  0  0  0  0  0  0  0  0  0
    6.4345   -1.5295    0.0000 C   0  0  0  0  0  0  0  0  0  0  0  0
    7.7730   -2.2065    0.0000 F   0  0  0  0  0  0  0  0  0  0  0  0
    5.7575   -2.8681    0.0000 F   0  0  0  0  0  0  0  0  0  0  0  0
    7.1115   -0.1910    0.0000 F   0  0  0  0  0  0  0  0  0  0  0  0
   -3.0182    4.7072    0.0000 O   0  0  0  0  0  0  0  0  0  0  0  0
   -5.3634    0.0704    0.0000 O   0  0  0  0  0  0  0  0  0  0  0  0
  1  2  1  0
  2  3  1  0
  3  4  1  0
  4  5  1  0
  5  6  1  0
  6  7  1  1
  7  8  1  0
  5  9  1  6
  9 10  2  0
 10 11  1  0
 11 12  2  0
 12 13  1  0
 13 14  2  0
 14 15  1  0
 15 16  1  0
 16 17  2  0
 17 18  1  0
 18 19  2  0
 16 20  1  0
 20 21  2  0
 21 22  1  0
 22 23  2  0
 23 24  1  0
 24 25  2  0
 25 26  1  0
 23 27  1  0
 27 28  1  0
 27 29  1  0
 27 30  1  0
 12 31  1  0
 10 32  1  0
  6  2  1  0
 14  9  1  0
 18 13  1  0
 25 20  1  0
M  END
>  <BrandName>  (79) 


>  <Applicants>  (79) 
Piramal Enterprises

>  <CHEMBL_ID>  (79) 
CHEMBL3905910

>  <Canonical_Smiles>  (79) 
CN1CC[C@H]([C@@H]1CO)c2c(cc(c3c2oc(cc3=O)c4ccc(cc4Cl)C(F)(F)F)O)O

>  <Chirality>  (79) 
Single Stereoisomer

>  <First_Approval>  (79) 
nan

>  <Phase>  (79) 
2.0

>  <SC_Patent>  (79) 
nan

>  <Synonyms>  (79) 
P-1446 | P1446A-05 | VORUCICLIB

>  <Withdrawn>  (79) 
{''}

>  <Indications>  (79) 
nan

>  <Type>  (79) 
nan

>  <targets_id>  (79) 
P11802

>  <Inchi>  (79) 
InChI=1S/C22H19ClF3NO5/c1-27-5-4-12(14(27)9-28)19-15(29)7-16(30)20-17(31)8-18(32-21(19)20)11-3-2-10(6-13(11)23)22(24,25)26/h2-3,6-8,12,14,28-30H,4-5,9H2,1H3/t12-,14+/m1/s1

>  <stdInchikey>  (79) 
MRPGRAKIAJJGMM-OCCSQVGLSA-N

>  <csid>  (79) 
29165867

>  <Links>  (79) 
|http://www.chemspider.com/Chemical-Structure.29165867.html|https://www.ebi.ac.uk/chembldb/compound/inspect/CHEMBL3905910|https://pubchem.ncbi.nlm.nih.gov/compound/67409219|https://go.drugbank.com/drugs/DB15157|https://www.guidetopharmacology.org/GRAC/LigandDisplayForward?9923|https://precision.fda.gov/uniisearch/srs/unii/W66XP666AM|https://www.bindingdb.org/bind/chemsearch/marvin/MolStructure.jsp?monomerid=50193104

>  <LinkName>  (79) 
|ChemSpider|ChEMBL|PubChem|DrugBank|Guide to Pharmacology|FDA SRS|BindingDB

>  <lig_pdb_ID>  (79) 


>  <pdb_IDs>  (79) 


>  <indicationDB>  (79) 


>  <uniprotId>  (79) 


>  <indicationG2P>  (79) 
None

>  <MW>  (79) 
469.1

>  <HBA>  (79) 
6

>  <HBD>  (79) 
3

>  <NRB>  (79) 
3

>  <TPSA>  (79) 
94.1

>  <LogP>  (79) 
4.3

>  <RoF>  (79) 
0

>  <Melting point>  (79) 
nan

>  <Targets>  (79) 
CDK4

>  <Kinase families>  (79) 
CMGC

>  <FDA_approved>  (79) 


$$$$
Zabedosertib
     RDKit          2D

 32 34  0  0  0  0  0  0  0  0999 V2000
    1.5157   -3.2325    0.0000 C   0  0  0  0  0  0  0  0  0  0  0  0
    0.2838   -4.0883    0.0000 C   0  0  0  0  0  0  0  0  0  0  0  0
   -0.9480   -4.9441    0.0000 C   0  0  0  0  0  0  0  0  0  0  0  0
    1.1397   -5.3202    0.0000 O   0  0  0  0  0  0  0  0  0  0  0  0
   -0.5720   -2.8564    0.0000 C   0  0  0  0  0  0  0  0  0  0  0  0
   -2.0668   -2.9816    0.0000 C   0  0  0  0  0  0  0  0  0  0  0  0
   -2.9226   -1.7498    0.0000 C   0  0  0  0  0  0  0  0  0  0  0  0
   -4.4107   -1.5615    0.0000 N   0  0  0  0  0  0  0  0  0  0  0  0
   -4.6915   -0.0880    0.0000 N   0  0  0  0  0  0  0  0  0  0  0  0
   -6.0487    0.5509    0.0000 C   0  0  0  0  0  0  0  0  0  0  0  0
   -6.1739    2.0457    0.0000 C   0  0  0  0  0  0  0  0  0  0  0  0
   -7.5310    2.6846    0.0000 S   0  0  0  0  0  0  0  0  0  0  0  0
   -8.8881    3.3235    0.0000 C   0  0  0  0  0  0  0  0  0  0  0  0
   -8.1699    1.3275    0.0000 O   0  0  0  0  0  0  0  0  0  0  0  0
   -6.8921    4.0417    0.0000 O   0  0  0  0  0  0  0  0  0  0  0  0
   -3.3769    0.6344    0.0000 C   0  0  0  0  0  0  0  0  0  0  0  0
   -2.2837   -0.3926    0.0000 C   0  0  0  0  0  0  0  0  0  0  0  0
   -0.7889   -0.2674    0.0000 C   0  0  0  0  0  0  0  0  0  0  0  0
    0.0669   -1.4993    0.0000 C   0  0  0  0  0  0  0  0  0  0  0  0
    1.5617   -1.3741    0.0000 N   0  0  0  0  0  0  0  0  0  0  0  0
    2.2006   -0.0169    0.0000 C   0  0  0  0  0  0  0  0  0  0  0  0
    1.3448    1.2149    0.0000 O   0  0  0  0  0  0  0  0  0  0  0  0
    3.6954    0.1083    0.0000 C   0  0  0  0  0  0  0  0  0  0  0  0
    4.5512   -1.1236    0.0000 C   0  0  0  0  0  0  0  0  0  0  0  0
    6.0460   -0.9983    0.0000 C   0  0  0  0  0  0  0  0  0  0  0  0
    6.6849    0.3588    0.0000 C   0  0  0  0  0  0  0  0  0  0  0  0
    5.8291    1.5907    0.0000 C   0  0  0  0  0  0  0  0  0  0  0  0
    4.3343    1.4654    0.0000 N   0  0  0  0  0  0  0  0  0  0  0  0
    6.4680    2.9478    0.0000 C   0  0  0  0  0  0  0  0  0  0  0  0
    7.1069    4.3049    0.0000 F   0  0  0  0  0  0  0  0  0  0  0  0
    7.8251    2.3089    0.0000 F   0  0  0  0  0  0  0  0  0  0  0  0
    5.1109    3.5867    0.0000 F   0  0  0  0  0  0  0  0  0  0  0  0
  1  2  1  0
  2  3  1  0
  2  4  1  0
  2  5  1  0
  5  6  2  0
  6  7  1  0
  7  8  2  0
  8  9  1  0
  9 10  1  0
 10 11  1  0
 11 12  1  0
 12 13  1  0
 12 14  2  0
 12 15  2  0
  9 16  1  0
 16 17  2  0
 17 18  1  0
 18 19  2  0
 19 20  1  0
 20 21  1  0
 21 22  2  0
 21 23  1  0
 23 24  2  0
 24 25  1  0
 25 26  2  0
 26 27  1  0
 27 28  2  0
 27 29  1  0
 29 30  1  0
 29 31  1  0
 29 32  1  0
 19  5  1  0
 28 23  1  0
 17  7  1  0
M  END
>  <BrandName>  (80) 


>  <Applicants>  (80) 
Bayer

>  <CHEMBL_ID>  (80) 
nan

>  <Canonical_Smiles>  (80) 
CC(C)(O)C1=CC2=NN(CCS(C)(=O)=O)C=C2C=C1NC(=O)C1C=CC=C(N=1)C(F)(F)F

>  <Chirality>  (80) 
nan

>  <First_Approval>  (80) 
nan

>  <Phase>  (80) 
2.0

>  <SC_Patent>  (80) 
nan

>  <Synonyms>  (80) 


>  <Withdrawn>  (80) 
{''}

>  <Indications>  (80) 
nan

>  <Type>  (80) 
nan

>  <targets_id>  (80) 
nan

>  <Inchi>  (80) 
InChI=1S/C20H21F3N4O4S/c1-19(2,29)13-10-15-12(11-27(26-15)7-8-32(3,30)31)9-16(13)25-18(28)14-5-4-6-17(24-14)20(21,22)23/h4-6,9-11,29H,7-8H2,1-3H3,(H,25,28)

>  <stdInchikey>  (80) 
OQAMEEFUUFJZRS-UHFFFAOYSA-N

>  <csid>  (80) 
101935510

>  <Links>  (80) 
|http://www.chemspider.com/Chemical-Structure.101935510.html|https://www.ebi.ac.uk/chembldb/compound/inspect/CHEMBL5429345|https://pubchem.ncbi.nlm.nih.gov/compound/121364961|https://precision.fda.gov/uniisearch/srs/unii/N1GRK350ZM|https://www.bindingdb.org/bind/chemsearch/marvin/MolStructure.jsp?monomerid=395297

>  <LinkName>  (80) 
|ChemSpider|ChEMBL|PubChem|FDA SRS|BindingDB

>  <lig_pdb_ID>  (80) 


>  <pdb_IDs>  (80) 


>  <indicationDB>  (80) 


>  <uniprotId>  (80) 


>  <indicationG2P>  (80) 


>  <MW>  (80) 
470.1

>  <HBA>  (80) 
7

>  <HBD>  (80) 
2

>  <NRB>  (80) 
6

>  <TPSA>  (80) 
114.2

>  <LogP>  (80) 
3.0

>  <RoF>  (80) 
0

>  <Melting point>  (80) 
nan

>  <Targets>  (80) 
nan

>  <Kinase families>  (80) 


>  <FDA_approved>  (80) 


$$$$
Toceranib
     RDKit          2D

 29 32  0  0  0  0  0  0  0  0999 V2000
    0.0418   -2.6982    0.0000 C   0  0  0  0  0  0  0  0  0  0  0  0
    0.0439   -1.1982    0.0000 C   0  0  0  0  0  0  0  0  0  0  0  0
    1.2587   -0.3183    0.0000 C   0  0  0  0  0  0  0  0  0  0  0  0
    0.7972    1.1090    0.0000 N   0  0  0  0  0  0  0  0  0  0  0  0
   -0.7028    1.1111    0.0000 C   0  0  0  0  0  0  0  0  0  0  0  0
   -1.1684   -0.3148    0.0000 C   0  0  0  0  0  0  0  0  0  0  0  0
   -2.5956   -0.7763    0.0000 C   0  0  0  0  0  0  0  0  0  0  0  0
   -2.9096   -2.2431    0.0000 O   0  0  0  0  0  0  0  0  0  0  0  0
   -3.7089    0.2290    0.0000 N   0  0  0  0  0  0  0  0  0  0  0  0
   -5.1361   -0.2325    0.0000 C   0  0  0  0  0  0  0  0  0  0  0  0
   -6.2494    0.7728    0.0000 C   0  0  0  0  0  0  0  0  0  0  0  0
   -7.6767    0.3113    0.0000 N   0  0  0  0  0  0  0  0  0  0  0  0
   -8.1422   -1.1146    0.0000 C   0  0  0  0  0  0  0  0  0  0  0  0
   -9.6422   -1.1125    0.0000 C   0  0  0  0  0  0  0  0  0  0  0  0
  -10.1037    0.3147    0.0000 C   0  0  0  0  0  0  0  0  0  0  0  0
   -8.8889    1.1947    0.0000 C   0  0  0  0  0  0  0  0  0  0  0  0
   -1.5828    2.3259    0.0000 C   0  0  0  0  0  0  0  0  0  0  0  0
    2.6846   -0.7838    0.0000 C   0  0  0  0  0  0  0  0  0  0  0  0
    3.8008    0.2183    0.0000 C   0  0  0  0  0  0  0  0  0  0  0  0
    5.2675   -0.0957    0.0000 C   0  0  0  0  0  0  0  0  0  0  0  0
    6.0157   -1.3958    0.0000 C   0  0  0  0  0  0  0  0  0  0  0  0
    7.5157   -1.3979    0.0000 C   0  0  0  0  0  0  0  0  0  0  0  0
    8.2675   -0.1000    0.0000 C   0  0  0  0  0  0  0  0  0  0  0  0
    7.5194    1.2001    0.0000 C   0  0  0  0  0  0  0  0  0  0  0  0
    6.0194    1.2023    0.0000 C   0  0  0  0  0  0  0  0  0  0  0  0
    5.0173    2.3184    0.0000 N   0  0  0  0  0  0  0  0  0  0  0  0
    3.6461    1.7103    0.0000 C   0  0  0  0  0  0  0  0  0  0  0  0
    2.3481    2.4621    0.0000 O   0  0  0  0  0  0  0  0  0  0  0  0
    8.2638   -2.6980    0.0000 F   0  0  0  0  0  0  0  0  0  0  0  0
  1  2  1  0
  2  3  2  0
  3  4  1  0
  4  5  1  0
  5  6  2  0
  6  7  1  0
  7  8  2  0
  7  9  1  0
  9 10  1  0
 10 11  1  0
 11 12  1  0
 12 13  1  0
 13 14  1  0
 14 15  1  0
 15 16  1  0
  5 17  1  0
  3 18  1  0
 18 19  2  0
 19 20  1  0
 20 21  2  0
 21 22  1  0
 22 23  2  0
 23 24  1  0
 24 25  2  0
 25 26  1  0
 26 27  1  0
 27 28  2  0
 22 29  1  0
  6  2  1  0
 16 12  1  0
 27 19  1  0
 25 20  1  0
M  END
>  <BrandName>  (81) 


>  <Applicants>  (81) 
Pfizer

>  <CHEMBL_ID>  (81) 
CHEMBL13608

>  <Canonical_Smiles>  (81) 
Cc1c([nH]c(c1C(=O)NCCN2CCCC2)C)/C=C\3/c4cc(ccc4NC3=O)F

>  <Chirality>  (81) 
Achiral Molecule

>  <First_Approval>  (81) 
nan

>  <Phase>  (81) 
2.0

>  <SC_Patent>  (81) 
nan

>  <Synonyms>  (81) 
PALLADIA | PHA-291639 | TOCERANIB

>  <Withdrawn>  (81) 
nan

>  <Indications>  (81) 
nan

>  <Type>  (81) 
nan

>  <targets_id>  (81) 
O97799

>  <Inchi>  (81) 
InChI=1S/C22H25FN4O2/c1-13-19(12-17-16-11-15(23)5-6-18(16)26-21(17)28)25-14(2)20(13)22(29)24-7-10-27-8-3-4-9-27/h5-6,11-12,25H,3-4,7-10H2,1-2H3,(H,24,29)(H,26,28)/b17-12-

>  <stdInchikey>  (81) 
SRSGVKWWVXWSJT-ATVHPVEESA-N

>  <csid>  (81) 
4486268

>  <Links>  (81) 
|http://www.chemspider.com/Chemical-Structure.4486268.html|https://www.ebi.ac.uk/chembldb/compound/inspect/CHEMBL13608|https://pubchem.ncbi.nlm.nih.gov/compound/5329106|https://www.rcsb.org/ligand/BWC|https://www.ebi.ac.uk/pdbe-srv/pdbechem/chemicalCompound/show/BWC|https://zinc15.docking.org/substances/ZINC000003989258|https://precision.fda.gov/uniisearch/srs/unii/59L7Y0530C|https://www.bindingdb.org/bind/chemsearch/marvin/MolStructure.jsp?monomerid=4818

>  <LinkName>  (81) 
|ChemSpider|ChEMBL|PubChem|RCSB|PDBe|ZINC|FDA SRS|BindingDB

>  <lig_pdb_ID>  (81) 
BWC

>  <pdb_IDs>  (81) 
6m13

>  <indicationDB>  (81) 


>  <uniprotId>  (81) 


>  <indicationG2P>  (81) 


>  <MW>  (81) 
396.2

>  <HBA>  (81) 
3

>  <HBD>  (81) 
3

>  <NRB>  (81) 
5

>  <TPSA>  (81) 
77.2

>  <LogP>  (81) 
3.1

>  <RoF>  (81) 
0

>  <Melting point>  (81) 
nan

>  <Targets>  (81) 
KIT

>  <Kinase families>  (81) 
KIT

>  <FDA_approved>  (81) 


$$$$
Gamcemetinib
     RDKit          2D

 32 36  0  0  0  0  0  0  0  0999 V2000
   -9.2343   -3.7651    0.0000 C   0  0  0  0  0  0  0  0  0  0  0  0
   -7.7781   -3.4055    0.0000 C   0  0  0  0  0  0  0  0  0  0  0  0
   -7.3613   -1.9645    0.0000 O   0  0  0  0  0  0  0  0  0  0  0  0
   -5.9051   -1.6050    0.0000 C   0  0  0  0  0  0  0  0  0  0  0  0
   -5.4883   -0.1640    0.0000 C   0  0  0  0  0  0  0  0  0  0  0  0
   -6.5279    0.9174    0.0000 C   0  0  0  0  0  0  0  0  0  0  0  0
   -6.1111    2.3583    0.0000 N   0  0  0  0  0  0  0  0  0  0  0  0
   -4.6549    2.7179    0.0000 C   0  0  0  0  0  0  0  0  0  0  0  0
   -4.2381    4.1588    0.0000 Cl  0  0  0  0  0  0  0  0  0  0  0  0
   -3.6153    1.6365    0.0000 N   0  0  0  0  0  0  0  0  0  0  0  0
   -4.0321    0.1956    0.0000 C   0  0  0  0  0  0  0  0  0  0  0  0
   -2.9925   -0.8858    0.0000 O   0  0  0  0  0  0  0  0  0  0  0  0
   -1.5363   -0.5262    0.0000 C   0  0  0  0  0  0  0  0  0  0  0  0
   -0.4968   -1.6076    0.0000 C   0  0  0  0  0  0  0  0  0  0  0  0
    0.9595   -1.2481    0.0000 C   0  0  0  0  0  0  0  0  0  0  0  0
    1.3762    0.1929    0.0000 C   0  0  0  0  0  0  0  0  0  0  0  0
    0.3367    1.2743    0.0000 C   0  0  0  0  0  0  0  0  0  0  0  0
    0.7535    2.7152    0.0000 C   0  0  0  0  0  0  0  0  0  0  0  0
    2.2097    3.0748    0.0000 C   0  0  0  0  0  0  0  0  0  0  0  0
    3.2492    1.9934    0.0000 C   0  0  0  0  0  0  0  0  0  0  0  0
    4.7484    2.0424    0.0000 S   0  0  0  0  0  0  0  0  0  0  0  0
    5.2583    0.6317    0.0000 C   0  0  0  0  0  0  0  0  0  0  0  0
    4.0742   -0.2891    0.0000 C   0  0  0  0  0  0  0  0  0  0  0  0
    2.8325    0.5525    0.0000 C   0  0  0  0  0  0  0  0  0  0  0  0
    4.0558   -1.7890    0.0000 N   0  0  0  0  0  0  0  0  0  0  0  0
    5.2170   -2.7386    0.0000 C   0  0  0  0  0  0  0  0  0  0  0  0
    6.6834   -2.4227    0.0000 C   0  0  0  0  0  0  0  0  0  0  0  0
    7.6042   -3.6068    0.0000 C   0  0  0  0  0  0  0  0  0  0  0  0
    7.3507   -1.0793    0.0000 N   0  0  0  0  0  0  0  0  0  0  0  0
    6.7165    0.2800    0.0000 C   0  0  0  0  0  0  0  0  0  0  0  0
    7.6660    1.4412    0.0000 O   0  0  0  0  0  0  0  0  0  0  0  0
   -1.1195    0.9147    0.0000 N   0  0  0  0  0  0  0  0  0  0  0  0
  1  2  1  0
  2  3  1  0
  3  4  1  0
  4  5  1  0
  5  6  2  0
  6  7  1  0
  7  8  2  0
  8  9  1  0
  8 10  1  0
 10 11  2  0
 11 12  1  0
 12 13  1  0
 13 14  2  0
 14 15  1  0
 15 16  2  0
 16 17  1  0
 17 18  1  0
 18 19  2  0
 19 20  1  0
 20 21  1  0
 21 22  1  0
 22 23  2  0
 23 24  1  0
 23 25  1  0
 25 26  1  0
 26 27  1  0
 27 28  1  6
 27 29  1  0
 29 30  1  0
 30 31  2  0
 17 32  2  0
 11  5  1  0
 32 13  1  0
 24 16  1  0
 24 20  2  0
 30 22  1  0
M  END
>  <BrandName>  (82) 


>  <Applicants>  (82) 
('Bristol Myers Squibb',)

>  <CHEMBL_ID>  (82) 
CHEMBL5314585

>  <Canonical_Smiles>  (82) 
CCOCc1cnc(Cl)nc1Oc1ccc2c(ccc3sc4c(c32)NC[C@@H](C)NC4=O)n1

>  <Chirality>  (82) 
Unknown

>  <First_Approval>  (82) 
nan

>  <Phase>  (82) 
2.0

>  <SC_Patent>  (82) 
nan

>  <Synonyms>  (82) 
BMS-986371 | CC-99677 | GAMCEMETINIB

>  <Withdrawn>  (82) 
nan

>  <Indications>  (82) 
nan

>  <Type>  (82) 
nan

>  <targets_id>  (82) 
nan

>  <Inchi>  (82) 
InChI=1S/C22H20ClN5O3S/c1-3-30-10-12-9-25-22(23)28-21(12)31-16-7-4-13-14(27-16)5-6-15-17(13)18-19(32-15)20(29)26-11(2)8-24-18/h4-7,9,11,24H,3,8,10H2,1-2H3,(H,26,29)/t11-/m1/s1

>  <stdInchikey>  (82) 
PYOQIOLRFIRRSO-LLVKDONJSA-N

>  <csid>  (82) 
115009596

>  <Links>  (82) 
|http://www.chemspider.com/Chemical-Structure.115009596.html|https://www.ebi.ac.uk/chembldb/compound/inspect/CHEMBL5314585|https://pubchem.ncbi.nlm.nih.gov/compound/118936948|https://www.bindingdb.org/bind/chemsearch/marvin/MolStructure.jsp?monomerid=348829

>  <LinkName>  (82) 
|ChemSpider|ChEMBL|PubChem|BindingDB

>  <lig_pdb_ID>  (82) 


>  <pdb_IDs>  (82) 


>  <indicationDB>  (82) 


>  <uniprotId>  (82) 


>  <indicationG2P>  (82) 


>  <MW>  (82) 
469.1

>  <HBA>  (82) 
8

>  <HBD>  (82) 
2

>  <NRB>  (82) 
5

>  <TPSA>  (82) 
98.3

>  <LogP>  (82) 
4.8

>  <RoF>  (82) 
0

>  <Melting point>  (82) 
nan

>  <Targets>  (82) 
nan

>  <Kinase families>  (82) 


>  <FDA_approved>  (82) 


$$$$
Balamapimod
     RDKit          2D

 40 45  0  0  0  0  0  0  0  0999 V2000
   -6.9295   -2.6378    0.0000 C   0  0  0  0  0  0  0  0  0  0  0  0
   -8.3413   -2.1310    0.0000 N   0  0  0  0  0  0  0  0  0  0  0  0
   -9.5811   -2.9752    0.0000 C   0  0  0  0  0  0  0  0  0  0  0  0
  -10.7672   -2.0570    0.0000 C   0  0  0  0  0  0  0  0  0  0  0  0
  -10.2604   -0.6452    0.0000 N   0  0  0  0  0  0  0  0  0  0  0  0
   -8.7611   -0.6909    0.0000 C   0  0  0  0  0  0  0  0  0  0  0  0
   -7.8428    0.4951    0.0000 S   0  0  0  0  0  0  0  0  0  0  0  0
   -6.3565    0.2929    0.0000 C   0  0  0  0  0  0  0  0  0  0  0  0
   -5.7885   -1.0954    0.0000 C   0  0  0  0  0  0  0  0  0  0  0  0
   -4.3022   -1.2976    0.0000 C   0  0  0  0  0  0  0  0  0  0  0  0
   -3.3839   -0.1116    0.0000 C   0  0  0  0  0  0  0  0  0  0  0  0
   -3.9519    1.2767    0.0000 C   0  0  0  0  0  0  0  0  0  0  0  0
   -5.4382    1.4790    0.0000 C   0  0  0  0  0  0  0  0  0  0  0  0
   -6.0062    2.8672    0.0000 Cl  0  0  0  0  0  0  0  0  0  0  0  0
   -1.8976   -0.3138    0.0000 N   0  0  0  0  0  0  0  0  0  0  0  0
   -0.9793    0.8723    0.0000 C   0  0  0  0  0  0  0  0  0  0  0  0
    0.5070    0.6700    0.0000 C   0  0  0  0  0  0  0  0  0  0  0  0
    1.0750   -0.7183    0.0000 C   0  0  0  0  0  0  0  0  0  0  0  0
    2.5614   -0.9205    0.0000 C   0  0  0  0  0  0  0  0  0  0  0  0
    3.4796    0.2656    0.0000 C   0  0  0  0  0  0  0  0  0  0  0  0
    2.9116    1.6539    0.0000 C   0  0  0  0  0  0  0  0  0  0  0  0
    1.4253    1.8561    0.0000 C   0  0  0  0  0  0  0  0  0  0  0  0
    0.8573    3.2444    0.0000 N   0  0  0  0  0  0  0  0  0  0  0  0
   -0.6290    3.4466    0.0000 C   0  0  0  0  0  0  0  0  0  0  0  0
   -1.5473    2.2606    0.0000 C   0  0  0  0  0  0  0  0  0  0  0  0
   -3.0336    2.4628    0.0000 C   0  0  0  0  0  0  0  0  0  0  0  0
   -4.5199    2.6650    0.0000 N   0  0  0  0  0  0  0  0  0  0  0  0
    4.9659    0.0633    0.0000 N   0  0  0  0  0  0  0  0  0  0  0  0
    5.5340   -1.3249    0.0000 C   0  0  0  0  0  0  0  0  0  0  0  0
    7.0203   -1.5272    0.0000 C   0  0  0  0  0  0  0  0  0  0  0  0
    7.9386   -0.3411    0.0000 C   0  0  0  0  0  0  0  0  0  0  0  0
    7.3705    1.0472    0.0000 C   0  0  0  0  0  0  0  0  0  0  0  0
    5.8842    1.2494    0.0000 C   0  0  0  0  0  0  0  0  0  0  0  0
    9.4249   -0.5433    0.0000 N   0  0  0  0  0  0  0  0  0  0  0  0
   10.4621    0.5402    0.0000 C   0  0  0  0  0  0  0  0  0  0  0  0
   11.8132   -0.1114    0.0000 C   0  0  0  0  0  0  0  0  0  0  0  0
   11.6109   -1.5977    0.0000 C   0  0  0  0  0  0  0  0  0  0  0  0
   10.1349   -1.8647    0.0000 C   0  0  0  0  0  0  0  0  0  0  0  0
    3.1294   -2.3088    0.0000 O   0  0  0  0  0  0  0  0  0  0  0  0
    2.2111   -3.4948    0.0000 C   0  0  0  0  0  0  0  0  0  0  0  0
  1  2  1  0
  2  3  1  0
  3  4  2  0
  4  5  1  0
  5  6  2  0
  6  7  1  0
  7  8  1  0
  8  9  2  0
  9 10  1  0
 10 11  2  0
 11 12  1  0
 12 13  2  0
 13 14  1  0
 11 15  1  0
 15 16  1  0
 16 17  1  0
 17 18  2  0
 18 19  1  0
 19 20  2  0
 20 21  1  0
 21 22  2  0
 22 23  1  0
 23 24  2  0
 24 25  1  0
 25 26  1  0
 26 27  3  0
 20 28  1  0
 28 29  1  0
 29 30  1  0
 30 31  1  0
 31 32  1  0
 32 33  1  0
 31 34  1  0
 34 35  1  0
 35 36  1  0
 36 37  1  0
 37 38  1  0
 19 39  1  0
 39 40  1  0
  6  2  1  0
 13  8  1  0
 25 16  2  0
 22 17  1  0
 33 28  1  0
 38 34  1  0
M  END
>  <BrandName>  (83) 


>  <Applicants>  (83) 
Wyeth

>  <CHEMBL_ID>  (83) 
CHEMBL2104954

>  <Canonical_Smiles>  (83) 
Cn1ccnc1Sc2ccc(cc2Cl)Nc3c4cc(c(cc4ncc3C#N)N5CCC(CC5)N6CCCC6)OC

>  <Chirality>  (83) 
Achiral Molecule

>  <First_Approval>  (83) 
nan

>  <Phase>  (83) 
2.0

>  <SC_Patent>  (83) 
nan

>  <Synonyms>  (83) 
BALAMAPIMOD | MKI-833

>  <Withdrawn>  (83) 
nan

>  <Indications>  (83) 
nan

>  <Type>  (83) 
nan

>  <targets_id>  (83) 
P04049|Q02750|P36507

>  <Inchi>  (83) 
InChI=1S/C30H32ClN7OS/c1-36-14-9-33-30(36)40-28-6-5-21(15-24(28)31)35-29-20(18-32)19-34-25-17-26(27(39-2)16-23(25)29)38-12-7-22(8-13-38)37-10-3-4-11-37/h5-6,9,14-17,19,22H,3-4,7-8,10-13H2,1-2H3,(H,34,35)

>  <stdInchikey>  (83) 
CVAKNHIXTWLGJO-UHFFFAOYSA-N

>  <csid>  (83) 
9653509

>  <Links>  (83) 
|http://www.chemspider.com/Chemical-Structure.9653509.html|https://www.ebi.ac.uk/chembldb/compound/inspect/CHEMBL2104954|https://pubchem.ncbi.nlm.nih.gov/compound/11478684|https://www.guidetopharmacology.org/GRAC/LigandDisplayForward?9925|https://zinc15.docking.org/substances/ZINC000011726212|https://precision.fda.gov/uniisearch/srs/unii/7Y0IV7N95Q

>  <LinkName>  (83) 
|ChemSpider|ChEMBL|PubChem|Guide to Pharmacology|ZINC|FDA SRS

>  <lig_pdb_ID>  (83) 


>  <pdb_IDs>  (83) 


>  <indicationDB>  (83) 


>  <uniprotId>  (83) 


>  <indicationG2P>  (83) 
None

>  <MW>  (83) 
573.2

>  <HBA>  (83) 
9

>  <HBD>  (83) 
1

>  <NRB>  (83) 
7

>  <TPSA>  (83) 
82.2

>  <LogP>  (83) 
6.5

>  <RoF>  (83) 
2

>  <Melting point>  (83) 
nan

>  <Targets>  (83) 
RAF1; MAP2K1; MAP2K2

>  <Kinase families>  (83) 
STE<br>TKL

>  <FDA_approved>  (83) 


$$$$
Zidesamtinib
     RDKit          2D

 31 35  0  0  0  0  0  0  0  0999 V2000
    6.8287   -1.3278    0.0000 C   0  0  0  0  0  0  0  0  0  0  0  0
    5.4887   -0.6537    0.0000 C   0  0  0  0  0  0  0  0  0  0  0  0
    4.2350   -1.4772    0.0000 N   0  0  0  0  0  0  0  0  0  0  0  0
    4.1642   -2.9755    0.0000 N   0  0  0  0  0  0  0  0  0  0  0  0
    2.7173   -3.3712    0.0000 C   0  0  0  0  0  0  0  0  0  0  0  0
    1.8939   -2.1174    0.0000 C   0  0  0  0  0  0  0  0  0  0  0  0
    2.8318   -0.9468    0.0000 C   0  0  0  0  0  0  0  0  0  0  0  0
    3.0588    0.5359    0.0000 C   0  0  0  0  0  0  0  0  0  0  0  0
    4.2678    1.4238    0.0000 C   0  0  0  0  0  0  0  0  0  0  0  0
    4.1033    2.9148    0.0000 N   0  0  0  0  0  0  0  0  0  0  0  0
    2.7299    3.5178    0.0000 C   0  0  0  0  0  0  0  0  0  0  0  0
    2.5654    5.0088    0.0000 N   0  0  0  0  0  0  0  0  0  0  0  0
    1.5209    2.6299    0.0000 C   0  0  0  0  0  0  0  0  0  0  0  0
    1.6854    1.1389    0.0000 C   0  0  0  0  0  0  0  0  0  0  0  0
   -0.1392    3.0984    0.0000 O   0  0  0  0  0  0  0  0  0  0  0  0
   -1.5368    2.5537    0.0000 C   0  0  0  0  0  0  0  0  0  0  0  0
   -2.4247    3.7626    0.0000 C   0  0  0  0  0  0  0  0  0  0  0  0
   -2.4748    1.3831    0.0000 C   0  0  0  0  0  0  0  0  0  0  0  0
   -3.6453    2.3210    0.0000 C   0  0  0  0  0  0  0  0  0  0  0  0
   -5.0429    1.7763    0.0000 C   0  0  0  0  0  0  0  0  0  0  0  0
   -6.2135    2.7142    0.0000 F   0  0  0  0  0  0  0  0  0  0  0  0
   -5.2699    0.2935    0.0000 C   0  0  0  0  0  0  0  0  0  0  0  0
   -4.0993   -0.6444    0.0000 C   0  0  0  0  0  0  0  0  0  0  0  0
   -2.7018   -0.0996    0.0000 C   0  0  0  0  0  0  0  0  0  0  0  0
   -2.1570   -1.4972    0.0000 C   0  0  0  0  0  0  0  0  0  0  0  0
   -3.4108   -2.3207    0.0000 N   0  0  0  0  0  0  0  0  0  0  0  0
   -3.0151   -3.7675    0.0000 N   0  0  0  0  0  0  0  0  0  0  0  0
   -3.9530   -4.9381    0.0000 C   0  0  0  0  0  0  0  0  0  0  0  0
   -1.5167   -3.8383    0.0000 N   0  0  0  0  0  0  0  0  0  0  0  0
   -0.9864   -2.4352    0.0000 C   0  0  0  0  0  0  0  0  0  0  0  0
    0.4963   -2.6622    0.0000 C   0  0  0  0  0  0  0  0  0  0  0  0
  1  2  1  0
  2  3  1  0
  3  4  1  0
  4  5  2  0
  5  6  1  0
  6  7  2  0
  7  8  1  0
  8  9  2  0
  9 10  1  0
 10 11  2  0
 11 12  1  0
 11 13  1  0
 13 14  2  0
 13 15  1  0
 15 16  1  0
 16 17  1  1
 16 18  1  0
 18 19  2  0
 19 20  1  0
 20 21  1  0
 20 22  2  0
 22 23  1  0
 23 24  2  0
 24 25  1  0
 25 26  2  0
 26 27  1  0
 27 28  1  0
 27 29  1  0
 29 30  2  0
 30 31  1  0
  7  3  1  0
 14  8  1  0
 24 18  1  0
 30 25  1  0
 31  6  1  0
M  END
>  <BrandName>  (84) 


>  <Applicants>  (84) 
('Nuvalent',)

>  <CHEMBL_ID>  (84) 
CHEMBL5314497

>  <Canonical_Smiles>  (84) 
CCn1ncc2c1-c1cnc(N)c(c1)O[C@H](C)c1cc(F)ccc1-c1nn(C)nc1C2

>  <Chirality>  (84) 
Unknown

>  <First_Approval>  (84) 
nan

>  <Phase>  (84) 
2.0

>  <SC_Patent>  (84) 
nan

>  <Synonyms>  (84) 
ZIDESAMTINIB

>  <Withdrawn>  (84) 
nan

>  <Indications>  (84) 
nan

>  <Type>  (84) 
nan

>  <targets_id>  (84) 
nan

>  <Inchi>  (84) 
InChI=1S/C22H22FN7O/c1-4-30-21-13(11-26-30)7-18-20(28-29(3)27-18)16-6-5-15(23)9-17(16)12(2)31-19-8-14(21)10-25-22(19)24/h5-6,8-12H,4,7H2,1-3H3,(H2,24,25)/t12-/m1/s1

>  <stdInchikey>  (84) 
DTWUUAFTYSMNQX-GFCCVEGCSA-N

>  <csid>  (84) 
128922073

>  <Links>  (84) 
|http://www.chemspider.com/Chemical-Structure.128922073.html|https://www.ebi.ac.uk/chembldb/compound/inspect/CHEMBL5314497|https://pubchem.ncbi.nlm.nih.gov/compound/166560233

>  <LinkName>  (84) 
|ChemSpider|ChEMBL|PubChem

>  <lig_pdb_ID>  (84) 


>  <pdb_IDs>  (84) 


>  <indicationDB>  (84) 


>  <uniprotId>  (84) 


>  <indicationG2P>  (84) 


>  <MW>  (84) 
419.2

>  <HBA>  (84) 
8

>  <HBD>  (84) 
1

>  <NRB>  (84) 
1

>  <TPSA>  (84) 
96.7

>  <LogP>  (84) 
3.5

>  <RoF>  (84) 
0

>  <Melting point>  (84) 
nan

>  <Targets>  (84) 
nan

>  <Kinase families>  (84) 


>  <FDA_approved>  (84) 


$$$$
Pexmetinib
     RDKit          2D

 41 45  0  0  0  0  0  0  0  0999 V2000
   -7.3682    4.2931    0.0000 C   0  0  0  0  0  0  0  0  0  0  0  0
   -6.4826    3.0825    0.0000 C   0  0  0  0  0  0  0  0  0  0  0  0
   -4.9913    3.2442    0.0000 C   0  0  0  0  0  0  0  0  0  0  0  0
   -4.1057    2.0335    0.0000 C   0  0  0  0  0  0  0  0  0  0  0  0
   -4.7114    0.6612    0.0000 C   0  0  0  0  0  0  0  0  0  0  0  0
   -6.2026    0.4996    0.0000 C   0  0  0  0  0  0  0  0  0  0  0  0
   -7.0882    1.7102    0.0000 C   0  0  0  0  0  0  0  0  0  0  0  0
   -3.8257   -0.5494    0.0000 N   0  0  0  0  0  0  0  0  0  0  0  0
   -2.3257   -0.5446    0.0000 C   0  0  0  0  0  0  0  0  0  0  0  0
   -1.8576   -1.9696    0.0000 C   0  0  0  0  0  0  0  0  0  0  0  0
   -3.0682   -2.8552    0.0000 C   0  0  0  0  0  0  0  0  0  0  0  0
   -4.2846   -1.9775    0.0000 N   0  0  0  0  0  0  0  0  0  0  0  0
   -3.0633   -4.3552    0.0000 C   0  0  0  0  0  0  0  0  0  0  0  0
   -4.5633   -4.3601    0.0000 C   0  0  0  0  0  0  0  0  0  0  0  0
   -1.5633   -4.3504    0.0000 C   0  0  0  0  0  0  0  0  0  0  0  0
   -3.0584   -5.8552    0.0000 C   0  0  0  0  0  0  0  0  0  0  0  0
   -1.4480    0.6718    0.0000 N   0  0  0  0  0  0  0  0  0  0  0  0
    0.0443    0.5199    0.0000 C   0  0  0  0  0  0  0  0  0  0  0  0
    0.9220    1.7363    0.0000 O   0  0  0  0  0  0  0  0  0  0  0  0
    0.6588   -0.8484    0.0000 N   0  0  0  0  0  0  0  0  0  0  0  0
    2.1511   -1.0004    0.0000 C   0  0  0  0  0  0  0  0  0  0  0  0
    2.7657   -2.3687    0.0000 C   0  0  0  0  0  0  0  0  0  0  0  0
    1.8880   -3.5851    0.0000 C   0  0  0  0  0  0  0  0  0  0  0  0
    2.5025   -4.9534    0.0000 C   0  0  0  0  0  0  0  0  0  0  0  0
    3.9948   -5.1053    0.0000 C   0  0  0  0  0  0  0  0  0  0  0  0
    4.8725   -3.8889    0.0000 C   0  0  0  0  0  0  0  0  0  0  0  0
    4.2580   -2.5206    0.0000 C   0  0  0  0  0  0  0  0  0  0  0  0
    5.1357   -1.3042    0.0000 O   0  0  0  0  0  0  0  0  0  0  0  0
    4.5211    0.0641    0.0000 C   0  0  0  0  0  0  0  0  0  0  0  0
    3.0288    0.2160    0.0000 C   0  0  0  0  0  0  0  0  0  0  0  0
    2.4143    1.5844    0.0000 C   0  0  0  0  0  0  0  0  0  0  0  0
    3.2920    2.8008    0.0000 C   0  0  0  0  0  0  0  0  0  0  0  0
    4.7843    2.6488    0.0000 C   0  0  0  0  0  0  0  0  0  0  0  0
    5.3988    1.2805    0.0000 C   0  0  0  0  0  0  0  0  0  0  0  0
    5.3899    4.0211    0.0000 C   0  0  0  0  0  0  0  0  0  0  0  0
    4.2719    5.0212    0.0000 N   0  0  0  0  0  0  0  0  0  0  0  0
    2.9754    4.2670    0.0000 N   0  0  0  0  0  0  0  0  0  0  0  0
    1.6031    4.8726    0.0000 C   0  0  0  0  0  0  0  0  0  0  0  0
    1.4414    6.3639    0.0000 C   0  0  0  0  0  0  0  0  0  0  0  0
    0.0691    6.9695    0.0000 O   0  0  0  0  0  0  0  0  0  0  0  0
    1.6248   -6.1698    0.0000 F   0  0  0  0  0  0  0  0  0  0  0  0
  1  2  1  0
  2  3  2  0
  3  4  1  0
  4  5  2  0
  5  6  1  0
  6  7  2  0
  5  8  1  0
  8  9  1  0
  9 10  2  0
 10 11  1  0
 11 12  2  0
 11 13  1  0
 13 14  1  0
 13 15  1  0
 13 16  1  0
  9 17  1  0
 17 18  1  0
 18 19  2  0
 18 20  1  0
 20 21  1  0
 21 22  1  0
 22 23  2  0
 23 24  1  0
 24 25  2  0
 25 26  1  0
 26 27  2  0
 27 28  1  0
 28 29  1  0
 29 30  2  0
 30 31  1  0
 31 32  2  0
 32 33  1  0
 33 34  2  0
 33 35  1  0
 35 36  2  0
 36 37  1  0
 37 38  1  0
 38 39  1  0
 39 40  1  0
 24 41  1  0
  7  2  1  0
 12  8  1  0
 27 22  1  0
 34 29  1  0
 37 32  1  0
M  END
>  <BrandName>  (85) 


>  <Applicants>  (85) 
Array BioPharma

>  <CHEMBL_ID>  (85) 
CHEMBL3991932

>  <Canonical_Smiles>  (85) 
Cc1ccc(cc1)n2c(cc(n2)C(C)(C)C)NC(=O)NCc3cc(ccc3Oc4ccc5c(c4)cnn5CCO)F

>  <Chirality>  (85) 
Achiral Molecule

>  <First_Approval>  (85) 
nan

>  <Phase>  (85) 
2.0

>  <SC_Patent>  (85) 
nan

>  <Synonyms>  (85) 
ARRY-614 | PEXMETINIB

>  <Withdrawn>  (85) 
nan

>  <Indications>  (85) 
nan

>  <Type>  (85) 
nan

>  <targets_id>  (85) 
Q16539|Q02763

>  <Inchi>  (85) 
InChI=1S/C31H33FN6O3/c1-20-5-8-24(9-6-20)38-29(17-28(36-38)31(2,3)4)35-30(40)33-18-22-15-23(32)7-12-27(22)41-25-10-11-26-21(16-25)19-34-37(26)13-14-39/h5-12,15-17,19,39H,13-14,18H2,1-4H3,(H2,33,35,40)

>  <stdInchikey>  (85) 
LNMRSSIMGCDUTP-UHFFFAOYSA-N

>  <csid>  (85) 
32702049

>  <Links>  (85) 
|http://www.chemspider.com/Chemical-Structure.32702049.html|https://www.ebi.ac.uk/chembldb/compound/inspect/CHEMBL3991932|https://pubchem.ncbi.nlm.nih.gov/compound/24765037|https://go.drugbank.com/drugs/DB16294|https://www.guidetopharmacology.org/GRAC/LigandDisplayForward?9917|https://zinc15.docking.org/substances/ZINC000041747181|https://precision.fda.gov/uniisearch/srs/unii/3750D0U8B5

>  <LinkName>  (85) 
|ChemSpider|ChEMBL|PubChem|DrugBank|Guide to Pharmacology|ZINC|FDA SRS

>  <lig_pdb_ID>  (85) 


>  <pdb_IDs>  (85) 


>  <indicationDB>  (85) 


>  <uniprotId>  (85) 


>  <indicationG2P>  (85) 
None

>  <MW>  (85) 
556.3

>  <HBA>  (85) 
7

>  <HBD>  (85) 
3

>  <NRB>  (85) 
8

>  <TPSA>  (85) 
106.2

>  <LogP>  (85) 
6.1

>  <RoF>  (85) 
2

>  <Melting point>  (85) 
nan

>  <Targets>  (85) 
MAPK14; TEK

>  <Kinase families>  (85) 
Tyr<br>CMGC

>  <FDA_approved>  (85) 


$$$$
Simurosertib
     RDKit          2D

 24 28  0  0  0  0  0  0  0  0999 V2000
    5.5301    1.7920    0.0000 C   0  0  0  0  0  0  0  0  0  0  0  0
    5.6119    0.2943    0.0000 C   0  0  0  0  0  0  0  0  0  0  0  0
    4.4483   -0.6523    0.0000 C   0  0  0  0  0  0  0  0  0  0  0  0
    4.9890   -2.0515    0.0000 C   0  0  0  0  0  0  0  0  0  0  0  0
    6.4867   -1.9696    0.0000 N   0  0  0  0  0  0  0  0  0  0  0  0
    6.8718   -0.5199    0.0000 N   0  0  0  0  0  0  0  0  0  0  0  0
    2.9986   -0.2673    0.0000 C   0  0  0  0  0  0  0  0  0  0  0  0
    1.8350   -1.2138    0.0000 C   0  0  0  0  0  0  0  0  0  0  0  0
    0.5751   -0.3997    0.0000 C   0  0  0  0  0  0  0  0  0  0  0  0
    0.9602    1.0501    0.0000 C   0  0  0  0  0  0  0  0  0  0  0  0
    2.4579    1.1319    0.0000 S   0  0  0  0  0  0  0  0  0  0  0  0
   -0.1029    2.1084    0.0000 C   0  0  0  0  0  0  0  0  0  0  0  0
    0.2822    3.5581    0.0000 O   0  0  0  0  0  0  0  0  0  0  0  0
   -1.5509    1.7170    0.0000 N   0  0  0  0  0  0  0  0  0  0  0  0
   -1.9359    0.2672    0.0000 C   0  0  0  0  0  0  0  0  0  0  0  0
   -0.8729   -0.7911    0.0000 N   0  0  0  0  0  0  0  0  0  0  0  0
   -4.3158   -0.9584    0.0000 C   0  0  0  0  0  0  0  0  0  0  0  0
   -5.2769   -0.0015    0.0000 C   0  0  0  0  0  0  0  0  0  0  0  0
   -5.8949    0.5426    0.0000 C   0  0  0  0  0  0  0  0  0  0  0  0
   -6.2800   -0.9071    0.0000 C   0  0  0  0  0  0  0  0  0  0  0  0
   -5.2170   -1.9654    0.0000 C   0  0  0  0  0  0  0  0  0  0  0  0
   -3.7689   -1.5740    0.0000 N   0  0  0  0  0  0  0  0  0  0  0  0
   -3.3839   -0.1242    0.0000 C   0  0  0  0  0  0  0  0  0  0  0  0
   -4.4469    0.9341    0.0000 C   0  0  0  0  0  0  0  0  0  0  0  0
  1  2  1  0
  2  3  1  0
  3  4  2  0
  4  5  1  0
  5  6  1  0
  3  7  1  0
  7  8  2  0
  8  9  1  0
  9 10  2  0
 10 11  1  0
 10 12  1  0
 12 13  2  0
 12 14  1  0
 14 15  1  0
 15 16  2  0
 15 17  1  0
 17 18  1  0
 18 19  1  0
 19 20  1  0
 20 21  1  0
 21 22  1  0
 22 23  1  0
 23 24  1  0
  6  2  2  0
 11  7  1  0
 16  9  1  0
 22 17  1  0
 24 19  1  0
M  END
>  <BrandName>  (86) 


>  <Applicants>  (86) 
Takeda

>  <CHEMBL_ID>  (86) 
CHEMBL4297644

>  <Canonical_Smiles>  (86) 
Cc1c(c[nH]n1)c2cc3c(s2)c(=O)[nH]c(n3)C4CC5CCN4CC5

>  <Chirality>  (86) 
Single Stereoisomer

>  <First_Approval>  (86) 
nan

>  <Phase>  (86) 
2.0

>  <SC_Patent>  (86) 
nan

>  <Synonyms>  (86) 
|TAK931F|TAK-931

>  <Withdrawn>  (86) 
nan

>  <Indications>  (86) 
nan

>  <Type>  (86) 
nan

>  <targets_id>  (86) 
nan

>  <Inchi>  (86) 
InChI=1S/C17H19N5OS/c1-9-11(8-18-21-9)14-7-12-15(24-14)17(23)20-16(19-12)13-6-10-2-4-22(13)5-3-10/h7-8,10,13H,2-6H2,1H3,(H,18,21)(H,19,20,23)/t13-/m0/s1

>  <stdInchikey>  (86) 
XGVXKJKTISMIOW-UHFFFAOYSA-N

>  <csid>  (86) 
64879789

>  <Links>  (86) 
|http://www.chemspider.com/Chemical-Structure.64879789.html|https://pubchem.ncbi.nlm.nih.gov/compound/136603526

>  <LinkName>  (86) 
|ChemSpider|PubChem

>  <lig_pdb_ID>  (86) 


>  <pdb_IDs>  (86) 


>  <indicationDB>  (86) 


>  <uniprotId>  (86) 


>  <indicationG2P>  (86) 


>  <MW>  (86) 
341.1

>  <HBA>  (86) 
5

>  <HBD>  (86) 
2

>  <NRB>  (86) 
2

>  <TPSA>  (86) 
77.7

>  <LogP>  (86) 
2.8

>  <RoF>  (86) 
0

>  <Melting point>  (86) 
nan

>  <Targets>  (86) 
nan

>  <Kinase families>  (86) 


>  <FDA_approved>  (86) 


$$$$
Roblitinib
     RDKit          2D

 37 40  0  0  0  0  0  0  0  0999 V2000
   -4.1201    6.2725    0.0000 C   0  0  0  0  0  0  0  0  0  0  0  0
   -3.9087    4.7875    0.0000 O   0  0  0  0  0  0  0  0  0  0  0  0
   -5.0890    3.8619    0.0000 C   0  0  0  0  0  0  0  0  0  0  0  0
   -4.8776    2.3768    0.0000 C   0  0  0  0  0  0  0  0  0  0  0  0
   -6.0580    1.4512    0.0000 N   0  0  0  0  0  0  0  0  0  0  0  0
   -5.8466   -0.0338    0.0000 C   0  0  0  0  0  0  0  0  0  0  0  0
   -4.4548   -0.5932    0.0000 C   0  0  0  0  0  0  0  0  0  0  0  0
   -4.2434   -2.0782    0.0000 C   0  0  0  0  0  0  0  0  0  0  0  0
   -2.8517   -2.6377    0.0000 N   0  0  0  0  0  0  0  0  0  0  0  0
   -1.6713   -1.7121    0.0000 C   0  0  0  0  0  0  0  0  0  0  0  0
   -1.8827   -0.2271    0.0000 O   0  0  0  0  0  0  0  0  0  0  0  0
   -0.2795   -2.2715    0.0000 N   0  0  0  0  0  0  0  0  0  0  0  0
   -0.0681   -3.7566    0.0000 C   0  0  0  0  0  0  0  0  0  0  0  0
    1.3237   -4.3160    0.0000 C   0  0  0  0  0  0  0  0  0  0  0  0
    2.5040   -3.3904    0.0000 C   0  0  0  0  0  0  0  0  0  0  0  0
    2.2926   -1.9054    0.0000 C   0  0  0  0  0  0  0  0  0  0  0  0
    3.4730   -0.9798    0.0000 C   0  0  0  0  0  0  0  0  0  0  0  0
    3.2616    0.5053    0.0000 C   0  0  0  0  0  0  0  0  0  0  0  0
    4.4420    1.4308    0.0000 C   0  0  0  0  0  0  0  0  0  0  0  0
    5.8338    0.8714    0.0000 N   0  0  0  0  0  0  0  0  0  0  0  0
    6.0452   -0.6136    0.0000 C   0  0  0  0  0  0  0  0  0  0  0  0
    7.4369   -1.1731    0.0000 C   0  0  0  0  0  0  0  0  0  0  0  0
    8.6173   -0.2475    0.0000 N   0  0  0  0  0  0  0  0  0  0  0  0
   10.0091   -0.8069    0.0000 C   0  0  0  0  0  0  0  0  0  0  0  0
    8.4059    1.2376    0.0000 C   0  0  0  0  0  0  0  0  0  0  0  0
    7.0141    1.7970    0.0000 C   0  0  0  0  0  0  0  0  0  0  0  0
    6.8027    3.2820    0.0000 O   0  0  0  0  0  0  0  0  0  0  0  0
    1.8698    1.0647    0.0000 C   0  0  0  0  0  0  0  0  0  0  0  0
    1.6584    2.5497    0.0000 C   0  0  0  0  0  0  0  0  0  0  0  0
    0.2667    3.1092    0.0000 O   0  0  0  0  0  0  0  0  0  0  0  0
    0.6895    0.1391    0.0000 N   0  0  0  0  0  0  0  0  0  0  0  0
    0.9009   -1.3459    0.0000 C   0  0  0  0  0  0  0  0  0  0  0  0
   -5.4238   -3.0038    0.0000 N   0  0  0  0  0  0  0  0  0  0  0  0
   -6.8156   -2.4444    0.0000 C   0  0  0  0  0  0  0  0  0  0  0  0
   -7.0270   -0.9594    0.0000 C   0  0  0  0  0  0  0  0  0  0  0  0
   -8.4187   -0.3999    0.0000 C   0  0  0  0  0  0  0  0  0  0  0  0
   -9.8105    0.1595    0.0000 N   0  0  0  0  0  0  0  0  0  0  0  0
  1  2  1  0
  2  3  1  0
  3  4  1  0
  4  5  1  0
  5  6  1  0
  6  7  2  0
  7  8  1  0
  8  9  1  0
  9 10  1  0
 10 11  2  0
 10 12  1  0
 12 13  1  0
 13 14  1  0
 14 15  1  0
 15 16  1  0
 16 17  2  0
 17 18  1  0
 18 19  1  0
 19 20  1  0
 20 21  1  0
 21 22  1  0
 22 23  1  0
 23 24  1  0
 23 25  1  0
 25 26  1  0
 26 27  2  0
 18 28  2  0
 28 29  1  0
 29 30  2  0
 28 31  1  0
 31 32  2  0
  8 33  2  0
 33 34  1  0
 34 35  2  0
 35 36  1  0
 36 37  3  0
 35  6  1  0
 32 12  1  0
 32 16  1  0
 26 20  1  0
M  END
>  <BrandName>  (87) 


>  <Applicants>  (87) 
('EverNov',)

>  <CHEMBL_ID>  (87) 
CHEMBL3908979

>  <Canonical_Smiles>  (87) 
COCCNc1cc(NC(=O)N2CCCc3cc(CN4CCN(C)CC4=O)c(C=O)nc32)ncc1C#N

>  <Chirality>  (87) 
Achiral Molecule

>  <First_Approval>  (87) 
nan

>  <Phase>  (87) 
2.0

>  <SC_Patent>  (87) 
nan

>  <Synonyms>  (87) 
FGF-401 | FGF401 | ROBLITINIB

>  <Withdrawn>  (87) 
nan

>  <Indications>  (87) 
nan

>  <Type>  (87) 
nan

>  <targets_id>  (87) 
nan

>  <Inchi>  (87) 
InChI=1S/C25H30N8O4/c1-31-7-8-32(23(35)15-31)14-18-10-17-4-3-6-33(24(17)29-21(18)16-34)25(36)30-22-11-20(27-5-9-37-2)19(12-26)13-28-22/h10-11,13,16H,3-9,14-15H2,1-2H3,(H2,27,28,30,36)

>  <stdInchikey>  (87) 
BHKDKKZMPODMIQ-UHFFFAOYSA-N

>  <csid>  (87) 
58828668

>  <Links>  (87) 
|http://www.chemspider.com/Chemical-Structure.58828668.html|https://www.ebi.ac.uk/chembldb/compound/inspect/CHEMBL3908979|https://pubchem.ncbi.nlm.nih.gov/compound/118036971|https://go.drugbank.com/drugs/DB16845|https://www.rcsb.org/ligand/FGF|https://www.ebi.ac.uk/pdbe-srv/pdbechem/chemicalCompound/show/FGF|https://www.guidetopharmacology.org/GRAC/LigandDisplayForward?9768|https://zinc15.docking.org/substances/ZINC000644165879|https://precision.fda.gov/uniisearch/srs/unii/M64JF6WMSA|https://www.bindingdb.org/bind/chemsearch/marvin/MolStructure.jsp?monomerid=209325

>  <LinkName>  (87) 
|ChemSpider|ChEMBL|PubChem|DrugBank|RCSB|PDBe|Guide to Pharmacology|ZINC|FDA SRS|BindingDB

>  <lig_pdb_ID>  (87) 
FGF

>  <pdb_IDs>  (87) 
6jpj 6yi8

>  <indicationDB>  (87) 


>  <uniprotId>  (87) 


>  <indicationG2P>  (87) 
None

>  <MW>  (87) 
506.2

>  <HBA>  (87) 
9

>  <HBD>  (87) 
2

>  <NRB>  (87) 
8

>  <TPSA>  (87) 
143.8

>  <LogP>  (87) 
1.5

>  <RoF>  (87) 
1

>  <Melting point>  (87) 
nan

>  <Targets>  (87) 
nan

>  <Kinase families>  (87) 


>  <FDA_approved>  (87) 


$$$$
Izorlisib
     RDKit          2D

 26 29  0  0  0  0  0  0  0  0999 V2000
   -3.7128   -4.3985    0.0000 C   0  0  0  0  0  0  0  0  0  0  0  0
   -2.3871   -3.6968    0.0000 S   0  0  0  0  0  0  0  0  0  0  0  0
   -3.0888   -2.3710    0.0000 O   0  0  0  0  0  0  0  0  0  0  0  0
   -1.6853   -5.0225    0.0000 O   0  0  0  0  0  0  0  0  0  0  0  0
   -1.0613   -2.9950    0.0000 N   0  0  0  0  0  0  0  0  0  0  0  0
    0.2856   -3.6550    0.0000 C   0  0  0  0  0  0  0  0  0  0  0  0
    1.3296   -2.5780    0.0000 C   0  0  0  0  0  0  0  0  0  0  0  0
    0.6279   -1.2522    0.0000 C   0  0  0  0  0  0  0  0  0  0  0  0
   -0.8498   -1.5100    0.0000 C   0  0  0  0  0  0  0  0  0  0  0  0
   -1.8119   -0.3591    0.0000 N   0  0  0  0  0  0  0  0  0  0  0  0
   -1.2963    1.0495    0.0000 C   0  0  0  0  0  0  0  0  0  0  0  0
    0.1814    1.3072    0.0000 N   0  0  0  0  0  0  0  0  0  0  0  0
    1.1435    0.1563    0.0000 C   0  0  0  0  0  0  0  0  0  0  0  0
    2.6212    0.4141    0.0000 C   0  0  0  0  0  0  0  0  0  0  0  0
    3.5832   -0.7368    0.0000 C   0  0  0  0  0  0  0  0  0  0  0  0
    5.0609   -0.4790    0.0000 N   0  0  0  0  0  0  0  0  0  0  0  0
    5.5766    0.9296    0.0000 C   0  0  0  0  0  0  0  0  0  0  0  0
    4.6145    2.0804    0.0000 N   0  0  0  0  0  0  0  0  0  0  0  0
    3.1368    1.8227    0.0000 C   0  0  0  0  0  0  0  0  0  0  0  0
    7.0543    1.1873    0.0000 N   0  0  0  0  0  0  0  0  0  0  0  0
   -2.2583    2.2003    0.0000 N   0  0  0  0  0  0  0  0  0  0  0  0
   -1.7427    3.6089    0.0000 C   0  0  0  0  0  0  0  0  0  0  0  0
   -2.7047    4.7597    0.0000 C   0  0  0  0  0  0  0  0  0  0  0  0
   -4.1824    4.5020    0.0000 O   0  0  0  0  0  0  0  0  0  0  0  0
   -4.6981    3.0934    0.0000 C   0  0  0  0  0  0  0  0  0  0  0  0
   -3.7360    1.9426    0.0000 C   0  0  0  0  0  0  0  0  0  0  0  0
  1  2  1  0
  2  3  2  0
  2  4  2  0
  2  5  1  0
  5  6  1  0
  6  7  1  0
  7  8  1  0
  8  9  2  0
  9 10  1  0
 10 11  2  0
 11 12  1  0
 12 13  2  0
 13 14  1  0
 14 15  2  0
 15 16  1  0
 16 17  2  0
 17 18  1  0
 18 19  2  0
 17 20  1  0
 11 21  1  0
 21 22  1  0
 22 23  1  0
 23 24  1  0
 24 25  1  0
 25 26  1  0
  9  5  1  0
 13  8  1  0
 19 14  1  0
 26 21  1  0
M  END
>  <BrandName>  (88) 


>  <Applicants>  (88) 
Menarini Pharma

>  <CHEMBL_ID>  (88) 
CHEMBL1684984

>  <Canonical_Smiles>  (88) 
CS(=O)(=O)N1CCc2c1nc(nc2c3cnc(nc3)N)N4CCOCC4

>  <Chirality>  (88) 
Achiral Molecule

>  <First_Approval>  (88) 
nan

>  <Phase>  (88) 
2.0

>  <SC_Patent>  (88) 
nan

>  <Synonyms>  (88) 
CH 5132799 | CH-5132799 | CH5132799 | IZORLISIB | PA-799 | PA799

>  <Withdrawn>  (88) 
nan

>  <Indications>  (88) 
nan

>  <Type>  (88) 
nan

>  <targets_id>  (88) 
nan

>  <Inchi>  (88) 
InChI=1S/C15H19N7O3S/c1-26(23,24)22-3-2-11-12(10-8-17-14(16)18-9-10)19-15(20-13(11)22)21-4-6-25-7-5-21/h8-9H,2-7H2,1H3,(H2,16,17,18)

>  <stdInchikey>  (88) 
JEGHXKRHKHPBJD-UHFFFAOYSA-N

>  <csid>  (88) 
26328046

>  <Links>  (88) 
|http://www.chemspider.com/Chemical-Structure.26328046.html|https://www.ebi.ac.uk/chembldb/compound/inspect/CHEMBL1684984|https://pubchem.ncbi.nlm.nih.gov/compound/49784945|https://go.drugbank.com/drugs/DB13051|https://www.rcsb.org/ligand/MMD|https://www.ebi.ac.uk/pdbe-srv/pdbechem/chemicalCompound/show/MMD|https://www.guidetopharmacology.org/GRAC/LigandDisplayForward?7743|https://zinc15.docking.org/substances/ZINC000066074200|https://precision.fda.gov/uniisearch/srs/unii/JCL936W835|https://www.bindingdb.org/bind/chemsearch/marvin/MolStructure.jsp?monomerid=50338197

>  <LinkName>  (88) 
|ChemSpider|ChEMBL|PubChem|DrugBank|RCSB|PDBe|Guide to Pharmacology|ZINC|FDA SRS|BindingDB

>  <lig_pdb_ID>  (88) 
MMD

>  <pdb_IDs>  (88) 
3apc

>  <indicationDB>  (88) 


>  <uniprotId>  (88) 


>  <indicationG2P>  (88) 
None

>  <MW>  (88) 
377.1

>  <HBA>  (88) 
9

>  <HBD>  (88) 
1

>  <NRB>  (88) 
3

>  <TPSA>  (88) 
127.4

>  <LogP>  (88) 
-0.3

>  <RoF>  (88) 
0

>  <Melting point>  (88) 
nan

>  <Targets>  (88) 
nan

>  <Kinase families>  (88) 


>  <FDA_approved>  (88) 


$$$$
Acumapimod
     RDKit          2D

 29 32  0  0  0  0  0  0  0  0999 V2000
   -1.6548   -4.2330    0.0000 C   0  0  0  0  0  0  0  0  0  0  0  0
   -2.5803   -3.0526    0.0000 C   0  0  0  0  0  0  0  0  0  0  0  0
   -4.0654   -3.2639    0.0000 C   0  0  0  0  0  0  0  0  0  0  0  0
   -4.9909   -2.0834    0.0000 C   0  0  0  0  0  0  0  0  0  0  0  0
   -4.4313   -0.6917    0.0000 C   0  0  0  0  0  0  0  0  0  0  0  0
   -2.9463   -0.4804    0.0000 C   0  0  0  0  0  0  0  0  0  0  0  0
   -2.0208   -1.6608    0.0000 C   0  0  0  0  0  0  0  0  0  0  0  0
   -0.5357   -1.4495    0.0000 N   0  0  0  0  0  0  0  0  0  0  0  0
    0.1662   -0.1239    0.0000 C   0  0  0  0  0  0  0  0  0  0  0  0
    1.6439   -0.3819    0.0000 C   0  0  0  0  0  0  0  0  0  0  0  0
    1.8552   -1.8669    0.0000 C   0  0  0  0  0  0  0  0  0  0  0  0
    0.5081   -2.5268    0.0000 N   0  0  0  0  0  0  0  0  0  0  0  0
    2.7211    0.6620    0.0000 C   0  0  0  0  0  0  0  0  0  0  0  0
    2.3557    2.1168    0.0000 O   0  0  0  0  0  0  0  0  0  0  0  0
    4.1637    0.2510    0.0000 C   0  0  0  0  0  0  0  0  0  0  0  0
    4.5291   -1.2039    0.0000 C   0  0  0  0  0  0  0  0  0  0  0  0
    5.9717   -1.6148    0.0000 C   0  0  0  0  0  0  0  0  0  0  0  0
    7.0489   -0.5710    0.0000 C   0  0  0  0  0  0  0  0  0  0  0  0
    6.6835    0.8838    0.0000 C   0  0  0  0  0  0  0  0  0  0  0  0
    5.2409    1.2948    0.0000 C   0  0  0  0  0  0  0  0  0  0  0  0
    7.7607    1.9276    0.0000 C   0  0  0  0  0  0  0  0  0  0  0  0
    8.8380    2.9715    0.0000 N   0  0  0  0  0  0  0  0  0  0  0  0
   -0.4936    1.2231    0.0000 N   0  0  0  0  0  0  0  0  0  0  0  0
   -5.3568    0.4887    0.0000 C   0  0  0  0  0  0  0  0  0  0  0  0
   -6.8419    0.2774    0.0000 O   0  0  0  0  0  0  0  0  0  0  0  0
   -4.7973    1.8805    0.0000 N   0  0  0  0  0  0  0  0  0  0  0  0
   -5.7228    3.0609    0.0000 C   0  0  0  0  0  0  0  0  0  0  0  0
   -7.1145    3.6204    0.0000 C   0  0  0  0  0  0  0  0  0  0  0  0
   -5.9341    4.5460    0.0000 C   0  0  0  0  0  0  0  0  0  0  0  0
  1  2  1  0
  2  3  2  0
  3  4  1  0
  4  5  2  0
  5  6  1  0
  6  7  2  0
  7  8  1  0
  8  9  1  0
  9 10  2  0
 10 11  1  0
 11 12  2  0
 10 13  1  0
 13 14  2  0
 13 15  1  0
 15 16  2  0
 16 17  1  0
 17 18  2  0
 18 19  1  0
 19 20  2  0
 19 21  1  0
 21 22  3  0
  9 23  1  0
  5 24  1  0
 24 25  2  0
 24 26  1  0
 26 27  1  0
 27 28  1  0
 28 29  1  0
  7  2  1  0
 12  8  1  0
 20 15  1  0
 29 27  1  0
M  END
>  <BrandName>  (89) 


>  <Applicants>  (89) 
Mereo BioPharma

>  <CHEMBL_ID>  (89) 
CHEMBL5314397

>  <Canonical_Smiles>  (89) 
Cc1ccc(cc1n2c(c(cn2)C(=O)c3cccc(c3)C#N)N)C(=O)NC4CC4

>  <Chirality>  (89) 
Achiral Molecule

>  <First_Approval>  (89) 
nan

>  <Phase>  (89) 
2.0

>  <SC_Patent>  (89) 
nan

>  <Synonyms>  (89) 
ACUMAPIMOD | BCT-197

>  <Withdrawn>  (89) 
{''}

>  <Indications>  (89) 
nan

>  <Type>  (89) 
nan

>  <targets_id>  (89) 
Q16539|Q15759|O15264|P53778

>  <Inchi>  (89) 
InChI=1S/C22H19N5O2/c1-13-5-6-16(22(29)26-17-7-8-17)10-19(13)27-21(24)18(12-25-27)20(28)15-4-2-3-14(9-15)11-23/h2-6,9-10,12,17H,7-8,24H2,1H3,(H,26,29)

>  <stdInchikey>  (89) 
VGUSQKZDZHAAEE-UHFFFAOYSA-N

>  <csid>  (89) 
9513071

>  <Links>  (89) 
|http://www.chemspider.com/Chemical-Structure.9513071.html|https://www.ebi.ac.uk/chembldb/compound/inspect/CHEMBL5314397|https://pubchem.ncbi.nlm.nih.gov/compound/11338127|https://go.drugbank.com/drugs/DB15448|https://www.guidetopharmacology.org/GRAC/LigandDisplayForward?9203|https://zinc15.docking.org/substances/ZINC000116024237|https://precision.fda.gov/uniisearch/srs/unii/2F16KW647L

>  <LinkName>  (89) 
|ChemSpider|ChEMBL|PubChem|DrugBank|Guide to Pharmacology|ZINC|FDA SRS

>  <lig_pdb_ID>  (89) 


>  <pdb_IDs>  (89) 


>  <indicationDB>  (89) 


>  <uniprotId>  (89) 


>  <indicationG2P>  (89) 
None

>  <MW>  (89) 
385.2

>  <HBA>  (89) 
6

>  <HBD>  (89) 
2

>  <NRB>  (89) 
5

>  <TPSA>  (89) 
113.8

>  <LogP>  (89) 
2.8

>  <RoF>  (89) 
0

>  <Melting point>  (89) 
nan

>  <Targets>  (89) 
MAPK14; MAPK11; MAPK13; MAPK12

>  <Kinase families>  (89) 
CMGC

>  <FDA_approved>  (89) 


$$$$
Adavosertib
     RDKit          2D

 37 41  0  0  0  0  0  0  0  0999 V2000
   -7.8781    0.1129    0.0000 C   0  0  0  0  0  0  0  0  0  0  0  0
   -8.0496    1.6030    0.0000 C   0  0  0  0  0  0  0  0  0  0  0  0
   -8.2212    3.0932    0.0000 C   0  0  0  0  0  0  0  0  0  0  0  0
   -6.5595    1.7746    0.0000 C   0  0  0  0  0  0  0  0  0  0  0  0
   -5.9629    3.1509    0.0000 C   0  0  0  0  0  0  0  0  0  0  0  0
   -4.4728    3.3224    0.0000 C   0  0  0  0  0  0  0  0  0  0  0  0
   -3.5791    2.1177    0.0000 C   0  0  0  0  0  0  0  0  0  0  0  0
   -4.1757    0.7414    0.0000 C   0  0  0  0  0  0  0  0  0  0  0  0
   -5.6658    0.5698    0.0000 N   0  0  0  0  0  0  0  0  0  0  0  0
   -3.2820   -0.4633    0.0000 N   0  0  0  0  0  0  0  0  0  0  0  0
   -1.7821   -0.4485    0.0000 C   0  0  0  0  0  0  0  0  0  0  0  0
   -1.3045   -1.8704    0.0000 C   0  0  0  0  0  0  0  0  0  0  0  0
    0.1658   -2.1678    0.0000 C   0  0  0  0  0  0  0  0  0  0  0  0
    1.1584   -1.0432    0.0000 N   0  0  0  0  0  0  0  0  0  0  0  0
    0.6808    0.3788    0.0000 C   0  0  0  0  0  0  0  0  0  0  0  0
   -0.7895    0.6761    0.0000 N   0  0  0  0  0  0  0  0  0  0  0  0
    1.6734    1.5034    0.0000 N   0  0  0  0  0  0  0  0  0  0  0  0
    3.1436    1.2060    0.0000 C   0  0  0  0  0  0  0  0  0  0  0  0
    3.6212   -0.2159    0.0000 C   0  0  0  0  0  0  0  0  0  0  0  0
    5.0915   -0.5132    0.0000 C   0  0  0  0  0  0  0  0  0  0  0  0
    6.0841    0.6114    0.0000 C   0  0  0  0  0  0  0  0  0  0  0  0
    5.6065    2.0333    0.0000 C   0  0  0  0  0  0  0  0  0  0  0  0
    4.1362    2.3306    0.0000 C   0  0  0  0  0  0  0  0  0  0  0  0
    7.5543    0.3140    0.0000 N   0  0  0  0  0  0  0  0  0  0  0  0
    8.0319   -1.1079    0.0000 C   0  0  0  0  0  0  0  0  0  0  0  0
    9.5022   -1.4052    0.0000 C   0  0  0  0  0  0  0  0  0  0  0  0
   10.4948   -0.2806    0.0000 N   0  0  0  0  0  0  0  0  0  0  0  0
   10.0172    1.1413    0.0000 C   0  0  0  0  0  0  0  0  0  0  0  0
    8.5469    1.4386    0.0000 C   0  0  0  0  0  0  0  0  0  0  0  0
   11.9650   -0.5780    0.0000 C   0  0  0  0  0  0  0  0  0  0  0  0
   -2.5092   -2.7641    0.0000 C   0  0  0  0  0  0  0  0  0  0  0  0
   -2.4944   -4.2640    0.0000 O   0  0  0  0  0  0  0  0  0  0  0  0
   -3.7314   -1.8944    0.0000 N   0  0  0  0  0  0  0  0  0  0  0  0
   -5.1533   -2.3721    0.0000 C   0  0  0  0  0  0  0  0  0  0  0  0
   -5.4507   -3.8423    0.0000 C   0  0  0  0  0  0  0  0  0  0  0  0
   -6.8726   -4.3199    0.0000 C   0  0  0  0  0  0  0  0  0  0  0  0
   -9.5398    1.4315    0.0000 O   0  0  0  0  0  0  0  0  0  0  0  0
  1  2  1  0
  2  3  1  0
  2  4  1  0
  4  5  2  0
  5  6  1  0
  6  7  2  0
  7  8  1  0
  8  9  2  0
  8 10  1  0
 10 11  1  0
 11 12  1  0
 12 13  2  0
 13 14  1  0
 14 15  2  0
 15 16  1  0
 15 17  1  0
 17 18  1  0
 18 19  2  0
 19 20  1  0
 20 21  2  0
 21 22  1  0
 22 23  2  0
 21 24  1  0
 24 25  1  0
 25 26  1  0
 26 27  1  0
 27 28  1  0
 28 29  1  0
 27 30  1  0
 12 31  1  0
 31 32  2  0
 31 33  1  0
 33 34  1  0
 34 35  1  0
 35 36  2  0
  2 37  1  0
  9  4  1  0
 33 10  1  0
 16 11  2  0
 23 18  1  0
 29 24  1  0
M  END
>  <BrandName>  (90) 


>  <Applicants>  (90) 
Astrazeneca

>  <CHEMBL_ID>  (90) 
CHEMBL1976040

>  <Canonical_Smiles>  (90) 
CC(C)(c1cccc(n1)n2c3c(cnc(n3)Nc4ccc(cc4)N5CCN(CC5)C)c(=O)n2CC=C)O

>  <Chirality>  (90) 
Achiral Molecule

>  <First_Approval>  (90) 
nan

>  <Phase>  (90) 
2.0

>  <SC_Patent>  (90) 
nan

>  <Synonyms>  (90) 
ADAVOSERTIB | AZD 1775 | AZD-1775 | AZD1775 | MK-1775 | MK1775

>  <Withdrawn>  (90) 
{''}

>  <Indications>  (90) 
nan

>  <Type>  (90) 
1

>  <targets_id>  (90) 
P30291

>  <Inchi>  (90) 
InChI=1S/C27H32N8O2/c1-5-13-34-25(36)21-18-28-26(29-19-9-11-20(12-10-19)33-16-14-32(4)15-17-33)31-24(21)35(34)23-8-6-7-22(30-23)27(2,3)37/h5-12,18,37H,1,13-17H2,2-4H3,(H,28,29,31)

>  <stdInchikey>  (90) 
BKWJAKQVGHWELA-UHFFFAOYSA-N

>  <csid>  (90) 
24808590

>  <Links>  (90) 
|http://www.chemspider.com/Chemical-Structure.24808590.html|https://www.ebi.ac.uk/chembldb/compound/inspect/CHEMBL1976040|https://pubchem.ncbi.nlm.nih.gov/compound/24856436|https://go.drugbank.com/drugs/DB11740|https://www.rcsb.org/ligand/8X7|https://www.ebi.ac.uk/pdbe-srv/pdbechem/chemicalCompound/show/8X7|https://www.guidetopharmacology.org/GRAC/LigandDisplayForward?7702|https://zinc15.docking.org/substances/ZINC000063539231|https://precision.fda.gov/uniisearch/srs/unii/K2T6HJX3I3|https://www.bindingdb.org/bind/chemsearch/marvin/MolStructure.jsp?monomerid=50240826

>  <LinkName>  (90) 
|ChemSpider|ChEMBL|PubChem|DrugBank|RCSB|PDBe|Guide to Pharmacology|ZINC|FDA SRS|BindingDB

>  <lig_pdb_ID>  (90) 
8X7

>  <pdb_IDs>  (90) 
5v5y 5vd0 5vdk 8bjt

>  <indicationDB>  (90) 


>  <uniprotId>  (90) 


>  <indicationG2P>  (90) 
None

>  <MW>  (90) 
500.3

>  <HBA>  (90) 
10

>  <HBD>  (90) 
2

>  <NRB>  (90) 
7

>  <TPSA>  (90) 
104.3

>  <LogP>  (90) 
2.9

>  <RoF>  (90) 
1

>  <Melting point>  (90) 
nan

>  <Targets>  (90) 
WEE1

>  <Kinase families>  (90) 
Other

>  <FDA_approved>  (90) 


$$$$
Tasurgratinib
     RDKit          2D

 43 47  0  0  0  0  0  0  0  0999 V2000
   13.1195    0.5360    0.0000 C   0  0  0  0  0  0  0  0  0  0  0  0
   11.7835    1.2179    0.0000 N   0  0  0  0  0  0  0  0  0  0  0  0
   10.5249    0.4019    0.0000 C   0  0  0  0  0  0  0  0  0  0  0  0
   10.6023   -1.0961    0.0000 O   0  0  0  0  0  0  0  0  0  0  0  0
    9.1888    1.0839    0.0000 N   0  0  0  0  0  0  0  0  0  0  0  0
    8.9553    2.5656    0.0000 C   0  0  0  0  0  0  0  0  0  0  0  0
    7.4739    2.8013    0.0000 C   0  0  0  0  0  0  0  0  0  0  0  0
    6.7920    1.4653    0.0000 C   0  0  0  0  0  0  0  0  0  0  0  0
    5.3428    1.0782    0.0000 C   0  0  0  0  0  0  0  0  0  0  0  0
    4.9535   -0.3704    0.0000 C   0  0  0  0  0  0  0  0  0  0  0  0
    3.5043   -0.7576    0.0000 O   0  0  0  0  0  0  0  0  0  0  0  0
    2.4444    0.3038    0.0000 C   0  0  0  0  0  0  0  0  0  0  0  0
    2.8337    1.7524    0.0000 C   0  0  0  0  0  0  0  0  0  0  0  0
    1.7739    2.8139    0.0000 C   0  0  0  0  0  0  0  0  0  0  0  0
    0.3247    2.4267    0.0000 N   0  0  0  0  0  0  0  0  0  0  0  0
   -0.0646    0.9781    0.0000 C   0  0  0  0  0  0  0  0  0  0  0  0
   -1.5138    0.5910    0.0000 N   0  0  0  0  0  0  0  0  0  0  0  0
   -2.5737    1.6524    0.0000 C   0  0  0  0  0  0  0  0  0  0  0  0
   -2.1844    3.1010    0.0000 O   0  0  0  0  0  0  0  0  0  0  0  0
   -4.0228    1.2652    0.0000 C   0  0  0  0  0  0  0  0  0  0  0  0
   -5.0827    2.3267    0.0000 C   0  0  0  0  0  0  0  0  0  0  0  0
   -6.5319    1.9395    0.0000 C   0  0  0  0  0  0  0  0  0  0  0  0
   -6.9212    0.4909    0.0000 C   0  0  0  0  0  0  0  0  0  0  0  0
   -8.3704    0.1038    0.0000 C   0  0  0  0  0  0  0  0  0  0  0  0
   -9.4302    1.1652    0.0000 C   0  0  0  0  0  0  0  0  0  0  0  0
  -10.8794    0.7780    0.0000 C   0  0  0  0  0  0  0  0  0  0  0  0
  -11.2687   -0.6706    0.0000 N   0  0  0  0  0  0  0  0  0  0  0  0
  -12.7179   -1.0577    0.0000 C   0  0  0  0  0  0  0  0  0  0  0  0
  -13.7778    0.0037    0.0000 C   0  0  0  0  0  0  0  0  0  0  0  0
  -15.2269   -0.3834    0.0000 O   0  0  0  0  0  0  0  0  0  0  0  0
  -10.2088   -1.7320    0.0000 C   0  0  0  0  0  0  0  0  0  0  0  0
   -8.7597   -1.3448    0.0000 C   0  0  0  0  0  0  0  0  0  0  0  0
   -5.8613   -0.5705    0.0000 C   0  0  0  0  0  0  0  0  0  0  0  0
   -4.4121   -0.1834    0.0000 C   0  0  0  0  0  0  0  0  0  0  0  0
    0.9953   -0.0833    0.0000 C   0  0  0  0  0  0  0  0  0  0  0  0
    6.0134   -1.4319    0.0000 C   0  0  0  0  0  0  0  0  0  0  0  0
    5.6241   -2.8805    0.0000 O   0  0  0  0  0  0  0  0  0  0  0  0
    4.1749   -3.2677    0.0000 C   0  0  0  0  0  0  0  0  0  0  0  0
    3.7856   -4.7163    0.0000 C   0  0  0  0  0  0  0  0  0  0  0  0
    2.3364   -5.1034    0.0000 O   0  0  0  0  0  0  0  0  0  0  0  0
    1.9471   -6.5520    0.0000 C   0  0  0  0  0  0  0  0  0  0  0  0
    7.4625   -1.0447    0.0000 C   0  0  0  0  0  0  0  0  0  0  0  0
    7.8518    0.4039    0.0000 C   0  0  0  0  0  0  0  0  0  0  0  0
  1  2  1  0
  2  3  1  0
  3  4  2  0
  3  5  1  0
  5  6  1  0
  6  7  2  0
  7  8  1  0
  8  9  2  0
  9 10  1  0
 10 11  1  0
 11 12  1  0
 12 13  2  0
 13 14  1  0
 14 15  2  0
 15 16  1  0
 16 17  1  0
 17 18  1  0
 18 19  2  0
 18 20  1  0
 20 21  2  0
 21 22  1  0
 22 23  2  0
 23 24  1  0
 24 25  1  0
 25 26  1  0
 26 27  1  0
 27 28  1  0
 28 29  1  0
 29 30  1  0
 27 31  1  0
 31 32  1  0
 23 33  1  0
 33 34  2  0
 16 35  2  0
 10 36  2  0
 36 37  1  0
 37 38  1  0
 38 39  1  0
 39 40  1  0
 40 41  1  0
 36 42  1  0
 42 43  2  0
 43  5  1  0
 43  8  1  0
 35 12  1  0
 34 20  1  0
 32 24  1  0
M  END
>  <BrandName>  (91) 


>  <Applicants>  (91) 
Eisai

>  <CHEMBL_ID>  (91) 
CHEMBL3686884

>  <Canonical_Smiles>  (91) 
CNC(=O)n1ccc2cc(Oc3ccnc(NC(=O)c4ccc(C5CCN(CCO)CC5)cc4)c3)c(OCCOC)cc21

>  <Chirality>  (91) 
Achiral Molecule

>  <First_Approval>  (91) 
nan

>  <Phase>  (91) 
2.0

>  <SC_Patent>  (91) 
nan

>  <Synonyms>  (91) 
E 7090 | E-7090 | E7090 | TASURGRATINIB

>  <Withdrawn>  (91) 
nan

>  <Indications>  (91) 
nan

>  <Type>  (91) 
nan

>  <targets_id>  (91) 
nan

>  <Inchi>  (91) 
InChI=1S/C32H37N5O6/c1-33-32(40)37-14-10-25-19-29(28(21-27(25)37)42-18-17-41-2)43-26-7-11-34-30(20-26)35-31(39)24-5-3-22(4-6-24)23-8-12-36(13-9-23)15-16-38/h3-7,10-11,14,19-21,23,38H,8-9,12-13,15-18H2,1-2H3,(H,33,40)(H,34,35,39)

>  <stdInchikey>  (91) 
IBHOLSBDZMIPPT-UHFFFAOYSA-N

>  <csid>  (91) 
58828122

>  <Links>  (91) 
|http://www.chemspider.com/Chemical-Structure.58828122.html|https://www.ebi.ac.uk/chembldb/compound/inspect/CHEMBL3686884|https://pubchem.ncbi.nlm.nih.gov/compound/78323434|https://zinc15.docking.org/substances/ZINC000169711512|https://precision.fda.gov/uniisearch/srs/unii/TN7CUD1NGA|https://www.bindingdb.org/bind/chemsearch/marvin/MolStructure.jsp?monomerid=142256

>  <LinkName>  (91) 
|ChemSpider|ChEMBL|PubChem|ZINC|FDA SRS|BindingDB

>  <lig_pdb_ID>  (91) 


>  <pdb_IDs>  (91) 


>  <indicationDB>  (91) 


>  <uniprotId>  (91) 


>  <indicationG2P>  (91) 


>  <MW>  (91) 
587.3

>  <HBA>  (91) 
9

>  <HBD>  (91) 
3

>  <NRB>  (91) 
11

>  <TPSA>  (91) 
127.2

>  <LogP>  (91) 
4.5

>  <RoF>  (91) 
1

>  <Melting point>  (91) 
nan

>  <Targets>  (91) 
nan

>  <Kinase families>  (91) 


>  <FDA_approved>  (91) 


$$$$
Galunisertib
     RDKit          2D

 28 32  0  0  0  0  0  0  0  0999 V2000
   -7.0093   -0.8762    0.0000 C   0  0  0  0  0  0  0  0  0  0  0  0
   -5.6737   -0.1933    0.0000 C   0  0  0  0  0  0  0  0  0  0  0  0
   -5.5973    1.3047    0.0000 C   0  0  0  0  0  0  0  0  0  0  0  0
   -4.2618    1.9876    0.0000 C   0  0  0  0  0  0  0  0  0  0  0  0
   -3.0026    1.1724    0.0000 C   0  0  0  0  0  0  0  0  0  0  0  0
   -3.0790   -0.3257    0.0000 C   0  0  0  0  0  0  0  0  0  0  0  0
   -4.4146   -1.0085    0.0000 N   0  0  0  0  0  0  0  0  0  0  0  0
   -1.8199   -1.1409    0.0000 C   0  0  0  0  0  0  0  0  0  0  0  0
   -0.4203   -0.6014    0.0000 C   0  0  0  0  0  0  0  0  0  0  0  0
    0.5253   -1.7658    0.0000 C   0  0  0  0  0  0  0  0  0  0  0  0
   -0.2899   -3.0249    0.0000 N   0  0  0  0  0  0  0  0  0  0  0  0
   -1.7393   -2.6387    0.0000 N   0  0  0  0  0  0  0  0  0  0  0  0
    0.6558   -4.1893    0.0000 C   0  0  0  0  0  0  0  0  0  0  0  0
    2.0554   -3.6498    0.0000 C   0  0  0  0  0  0  0  0  0  0  0  0
    1.9748   -2.1520    0.0000 C   0  0  0  0  0  0  0  0  0  0  0  0
   -0.0341    0.8481    0.0000 C   0  0  0  0  0  0  0  0  0  0  0  0
   -1.0962    1.9072    0.0000 C   0  0  0  0  0  0  0  0  0  0  0  0
   -0.7100    3.3567    0.0000 C   0  0  0  0  0  0  0  0  0  0  0  0
    0.7383    3.7469    0.0000 N   0  0  0  0  0  0  0  0  0  0  0  0
    1.8005    2.6877    0.0000 C   0  0  0  0  0  0  0  0  0  0  0  0
    1.4143    1.2383    0.0000 C   0  0  0  0  0  0  0  0  0  0  0  0
    2.4764    0.1791    0.0000 C   0  0  0  0  0  0  0  0  0  0  0  0
    3.9248    0.5694    0.0000 C   0  0  0  0  0  0  0  0  0  0  0  0
    4.3110    2.0188    0.0000 C   0  0  0  0  0  0  0  0  0  0  0  0
    3.2488    3.0780    0.0000 C   0  0  0  0  0  0  0  0  0  0  0  0
    4.9869   -0.4898    0.0000 C   0  0  0  0  0  0  0  0  0  0  0  0
    4.6007   -1.9392    0.0000 O   0  0  0  0  0  0  0  0  0  0  0  0
    6.4352   -0.0995    0.0000 N   0  0  0  0  0  0  0  0  0  0  0  0
  1  2  1  0
  2  3  2  0
  3  4  1  0
  4  5  2  0
  5  6  1  0
  6  7  2  0
  6  8  1  0
  8  9  1  0
  9 10  2  0
 10 11  1  0
 11 12  1  0
 11 13  1  0
 13 14  1  0
 14 15  1  0
  9 16  1  0
 16 17  2  0
 17 18  1  0
 18 19  2  0
 19 20  1  0
 20 21  2  0
 21 22  1  0
 22 23  2  0
 23 24  1  0
 24 25  2  0
 23 26  1  0
 26 27  2  0
 26 28  1  0
  7  2  1  0
 12  8  2  0
 15 10  1  0
 21 16  1  0
 25 20  1  0
M  END
>  <BrandName>  (92) 


>  <Applicants>  (92) 
Eli Lilly

>  <CHEMBL_ID>  (92) 
CHEMBL2364611

>  <Canonical_Smiles>  (92) 
Cc1cccc(n1)c2c(c3n(n2)CCC3)c4ccnc5c4cc(cc5)C(=O)N

>  <Chirality>  (92) 
Achiral Molecule

>  <First_Approval>  (92) 
nan

>  <Phase>  (92) 
2.0

>  <SC_Patent>  (92) 
nan

>  <Synonyms>  (92) 
GALUNISERTIB | LY-2157299 | LY2157299

>  <Withdrawn>  (92) 
{''}

>  <Indications>  (92) 
nan

>  <Type>  (92) 
nan

>  <targets_id>  (92) 
P36897

>  <Inchi>  (92) 
InChI=1S/C22H19N5O/c1-13-4-2-5-18(25-13)21-20(19-6-3-11-27(19)26-21)15-9-10-24-17-8-7-14(22(23)28)12-16(15)17/h2,4-5,7-10,12H,3,6,11H2,1H3,(H2,23,28)

>  <stdInchikey>  (92) 
IVRXNBXKWIJUQB-UHFFFAOYSA-N

>  <csid>  (92) 
8266022

>  <Links>  (92) 
|http://www.chemspider.com/Chemical-Structure.8266022.html|https://www.ebi.ac.uk/chembldb/compound/inspect/CHEMBL2364611|https://pubchem.ncbi.nlm.nih.gov/compound/10090485|https://go.drugbank.com/drugs/DB11911|https://www.guidetopharmacology.org/GRAC/LigandDisplayForward?7797|https://zinc15.docking.org/substances/ZINC000003959536|https://precision.fda.gov/uniisearch/srs/unii/3OKH1W5LZE|https://www.bindingdb.org/bind/chemsearch/marvin/MolStructure.jsp?monomerid=50015640

>  <LinkName>  (92) 
|ChemSpider|ChEMBL|PubChem|DrugBank|Guide to Pharmacology|ZINC|FDA SRS|BindingDB

>  <lig_pdb_ID>  (92) 


>  <pdb_IDs>  (92) 


>  <indicationDB>  (92) 


>  <uniprotId>  (92) 


>  <indicationG2P>  (92) 
None

>  <MW>  (92) 
369.2

>  <HBA>  (92) 
5

>  <HBD>  (92) 
1

>  <NRB>  (92) 
3

>  <TPSA>  (92) 
86.7

>  <LogP>  (92) 
3.5

>  <RoF>  (92) 
0

>  <Melting point>  (92) 
nan

>  <Targets>  (92) 
TGFBR1

>  <Kinase families>  (92) 
TKL

>  <FDA_approved>  (92) 


$$$$
Glesatinib
     RDKit          2D

 43 47  0  0  0  0  0  0  0  0999 V2000
   16.4367    2.9921    0.0000 C   0  0  0  0  0  0  0  0  0  0  0  0
   15.0357    3.5278    0.0000 O   0  0  0  0  0  0  0  0  0  0  0  0
   13.8712    2.5823    0.0000 C   0  0  0  0  0  0  0  0  0  0  0  0
   12.4701    3.1180    0.0000 C   0  0  0  0  0  0  0  0  0  0  0  0
   11.3056    2.1725    0.0000 N   0  0  0  0  0  0  0  0  0  0  0  0
    9.9046    2.7082    0.0000 C   0  0  0  0  0  0  0  0  0  0  0  0
    8.7401    1.7627    0.0000 C   0  0  0  0  0  0  0  0  0  0  0  0
    8.9767    0.2814    0.0000 C   0  0  0  0  0  0  0  0  0  0  0  0
    7.8122   -0.6641    0.0000 C   0  0  0  0  0  0  0  0  0  0  0  0
    6.4111   -0.1284    0.0000 C   0  0  0  0  0  0  0  0  0  0  0  0
    6.1745    1.3528    0.0000 N   0  0  0  0  0  0  0  0  0  0  0  0
    7.3390    2.2984    0.0000 C   0  0  0  0  0  0  0  0  0  0  0  0
    5.2467   -1.0739    0.0000 C   0  0  0  0  0  0  0  0  0  0  0  0
    5.3272   -2.5717    0.0000 C   0  0  0  0  0  0  0  0  0  0  0  0
    3.9275   -3.1111    0.0000 C   0  0  0  0  0  0  0  0  0  0  0  0
    2.9820   -1.9467    0.0000 C   0  0  0  0  0  0  0  0  0  0  0  0
    3.7973   -0.6876    0.0000 S   0  0  0  0  0  0  0  0  0  0  0  0
    1.5008   -2.1833    0.0000 C   0  0  0  0  0  0  0  0  0  0  0  0
    0.9651   -3.5844    0.0000 C   0  0  0  0  0  0  0  0  0  0  0  0
    1.9106   -4.7488    0.0000 C   0  0  0  0  0  0  0  0  0  0  0  0
    3.3918   -4.5122    0.0000 N   0  0  0  0  0  0  0  0  0  0  0  0
    0.5552   -1.0188    0.0000 O   0  0  0  0  0  0  0  0  0  0  0  0
   -0.9260   -1.2554    0.0000 C   0  0  0  0  0  0  0  0  0  0  0  0
   -1.8715   -0.0909    0.0000 C   0  0  0  0  0  0  0  0  0  0  0  0
   -3.3527   -0.3275    0.0000 C   0  0  0  0  0  0  0  0  0  0  0  0
   -3.8884   -1.7286    0.0000 C   0  0  0  0  0  0  0  0  0  0  0  0
   -2.9429   -2.8931    0.0000 C   0  0  0  0  0  0  0  0  0  0  0  0
   -1.4617   -2.6565    0.0000 C   0  0  0  0  0  0  0  0  0  0  0  0
   -0.5162   -3.8210    0.0000 F   0  0  0  0  0  0  0  0  0  0  0  0
   -5.3697   -1.9652    0.0000 N   0  0  0  0  0  0  0  0  0  0  0  0
   -6.3152   -0.8008    0.0000 C   0  0  0  0  0  0  0  0  0  0  0  0
   -5.7795    0.6003    0.0000 S   0  0  0  0  0  0  0  0  0  0  0  0
   -7.7964   -1.0374    0.0000 N   0  0  0  0  0  0  0  0  0  0  0  0
   -8.7419    0.1271    0.0000 C   0  0  0  0  0  0  0  0  0  0  0  0
   -8.2062    1.5282    0.0000 O   0  0  0  0  0  0  0  0  0  0  0  0
  -10.2231   -0.1095    0.0000 C   0  0  0  0  0  0  0  0  0  0  0  0
  -11.1687    1.0550    0.0000 C   0  0  0  0  0  0  0  0  0  0  0  0
  -10.6329    2.4560    0.0000 C   0  0  0  0  0  0  0  0  0  0  0  0
  -11.5785    3.6205    0.0000 C   0  0  0  0  0  0  0  0  0  0  0  0
  -13.0597    3.3839    0.0000 C   0  0  0  0  0  0  0  0  0  0  0  0
  -13.5954    1.9828    0.0000 C   0  0  0  0  0  0  0  0  0  0  0  0
  -12.6499    0.8184    0.0000 C   0  0  0  0  0  0  0  0  0  0  0  0
  -14.0052    4.5484    0.0000 F   0  0  0  0  0  0  0  0  0  0  0  0
  1  2  1  0
  2  3  1  0
  3  4  1  0
  4  5  1  0
  5  6  1  0
  6  7  1  0
  7  8  2  0
  8  9  1  0
  9 10  2  0
 10 11  1  0
 11 12  2  0
 10 13  1  0
 13 14  2  0
 14 15  1  0
 15 16  2  0
 16 17  1  0
 16 18  1  0
 18 19  2  0
 19 20  1  0
 20 21  2  0
 18 22  1  0
 22 23  1  0
 23 24  2  0
 24 25  1  0
 25 26  2  0
 26 27  1  0
 27 28  2  0
 28 29  1  0
 26 30  1  0
 30 31  1  0
 31 32  2  0
 31 33  1  0
 33 34  1  0
 34 35  2  0
 34 36  1  0
 36 37  1  0
 37 38  2  0
 38 39  1  0
 39 40  2  0
 40 41  1  0
 41 42  2  0
 40 43  1  0
 12  7  1  0
 17 13  1  0
 21 15  1  0
 28 23  1  0
 42 37  1  0
M  END
>  <BrandName>  (93) 


>  <Applicants>  (93) 
Mirati Therapeutics

>  <CHEMBL_ID>  (93) 
CHEMBL3989914

>  <Canonical_Smiles>  (93) 
COCCNCc1ccc(nc1)c2cc3c(s2)c(ccn3)Oc4ccc(cc4F)NC(=S)NC(=O)Cc5ccc(cc5)F

>  <Chirality>  (93) 
Achiral Molecule

>  <First_Approval>  (93) 
nan

>  <Phase>  (93) 
2.0

>  <SC_Patent>  (93) 
nan

>  <Synonyms>  (93) 
GLESATINIB | MG-90265 | MG-90265X | MG90265 | MG90265GLY | MG90265H9 | MG90265X | MGCD-265 | MGCD265

>  <Withdrawn>  (93) 
{''}

>  <Indications>  (93) 
nan

>  <Type>  (93) 
nan

>  <targets_id>  (93) 
P08581|Q02763|P17948|P35968|P35916|Q04912

>  <Inchi>  (93) 
InChI=1S/C31H27F2N5O3S2/c1-40-13-12-34-17-20-4-8-24(36-18-20)28-16-25-30(43-28)27(10-11-35-25)41-26-9-7-22(15-23(26)33)37-31(42)38-29(39)14-19-2-5-21(32)6-3-19/h2-11,15-16,18,34H,12-14,17H2,1H3,(H2,37,38,39,42)

>  <stdInchikey>  (93) 
YRCHYHRCBXNYNU-UHFFFAOYSA-N

>  <csid>  (93) 
52084900

>  <Links>  (93) 
|http://www.chemspider.com/Chemical-Structure.52084900.html|https://www.ebi.ac.uk/chembldb/compound/inspect/CHEMBL3989914|https://pubchem.ncbi.nlm.nih.gov/compound/25181472|https://go.drugbank.com/drugs/DB06302|https://zinc15.docking.org/substances/ZINC000113139653|https://precision.fda.gov/uniisearch/srs/unii/7Q29OXD98N

>  <LinkName>  (93) 
|ChemSpider|ChEMBL|PubChem|DrugBank|ZINC|FDA SRS

>  <lig_pdb_ID>  (93) 


>  <pdb_IDs>  (93) 


>  <indicationDB>  (93) 


>  <uniprotId>  (93) 


>  <indicationG2P>  (93) 


>  <MW>  (93) 
619.2

>  <HBA>  (93) 
8

>  <HBD>  (93) 
3

>  <NRB>  (93) 
11

>  <TPSA>  (93) 
97.4

>  <LogP>  (93) 
6.2

>  <RoF>  (93) 
2

>  <Melting point>  (93) 
nan

>  <Targets>  (93) 
MET; TEK; FLT1; KDR; FLT4; MST1R

>  <Kinase families>  (93) 
Tyr

>  <FDA_approved>  (93) 


$$$$
Golvatinib
     RDKit          2D

 46 51  0  0  0  0  0  0  0  0999 V2000
  -10.3280   -6.4061    0.0000 C   0  0  0  0  0  0  0  0  0  0  0  0
   -9.5612   -5.1169    0.0000 N   0  0  0  0  0  0  0  0  0  0  0  0
  -10.2942   -3.8082    0.0000 C   0  0  0  0  0  0  0  0  0  0  0  0
   -9.5274   -2.5191    0.0000 C   0  0  0  0  0  0  0  0  0  0  0  0
   -8.0275   -2.5386    0.0000 N   0  0  0  0  0  0  0  0  0  0  0  0
   -7.2945   -3.8473    0.0000 C   0  0  0  0  0  0  0  0  0  0  0  0
   -8.0613   -5.1365    0.0000 C   0  0  0  0  0  0  0  0  0  0  0  0
   -7.2606   -1.2494    0.0000 C   0  0  0  0  0  0  0  0  0  0  0  0
   -5.7608   -1.2690    0.0000 C   0  0  0  0  0  0  0  0  0  0  0  0
   -4.9939    0.0202    0.0000 C   0  0  0  0  0  0  0  0  0  0  0  0
   -5.7269    1.3289    0.0000 N   0  0  0  0  0  0  0  0  0  0  0  0
   -7.2268    1.3484    0.0000 C   0  0  0  0  0  0  0  0  0  0  0  0
   -7.9937    0.0593    0.0000 C   0  0  0  0  0  0  0  0  0  0  0  0
   -4.9601    2.6180    0.0000 C   0  0  0  0  0  0  0  0  0  0  0  0
   -5.6931    3.9267    0.0000 O   0  0  0  0  0  0  0  0  0  0  0  0
   -3.4602    2.5985    0.0000 N   0  0  0  0  0  0  0  0  0  0  0  0
   -2.6933    3.8877    0.0000 C   0  0  0  0  0  0  0  0  0  0  0  0
   -1.1935    3.8681    0.0000 C   0  0  0  0  0  0  0  0  0  0  0  0
   -0.4266    5.1573    0.0000 C   0  0  0  0  0  0  0  0  0  0  0  0
   -1.1596    6.4660    0.0000 C   0  0  0  0  0  0  0  0  0  0  0  0
   -2.6595    6.4855    0.0000 C   0  0  0  0  0  0  0  0  0  0  0  0
   -3.4264    5.1964    0.0000 N   0  0  0  0  0  0  0  0  0  0  0  0
    1.0732    5.1378    0.0000 O   0  0  0  0  0  0  0  0  0  0  0  0
    1.8063    3.8291    0.0000 C   0  0  0  0  0  0  0  0  0  0  0  0
    1.0394    2.5399    0.0000 C   0  0  0  0  0  0  0  0  0  0  0  0
    1.7724    1.2312    0.0000 C   0  0  0  0  0  0  0  0  0  0  0  0
    3.2723    1.2117    0.0000 C   0  0  0  0  0  0  0  0  0  0  0  0
    4.0392    2.5008    0.0000 C   0  0  0  0  0  0  0  0  0  0  0  0
    3.3061    3.8095    0.0000 C   0  0  0  0  0  0  0  0  0  0  0  0
    5.5390    2.4813    0.0000 F   0  0  0  0  0  0  0  0  0  0  0  0
    4.0053   -0.0970    0.0000 N   0  0  0  0  0  0  0  0  0  0  0  0
    3.2385   -1.3862    0.0000 C   0  0  0  0  0  0  0  0  0  0  0  0
    1.7386   -1.3666    0.0000 O   0  0  0  0  0  0  0  0  0  0  0  0
    3.9715   -2.6949    0.0000 C   0  0  0  0  0  0  0  0  0  0  0  0
    4.2127   -4.1754    0.0000 C   0  0  0  0  0  0  0  0  0  0  0  0
    2.8100   -3.6440    0.0000 C   0  0  0  0  0  0  0  0  0  0  0  0
    5.3876   -2.2002    0.0000 C   0  0  0  0  0  0  0  0  0  0  0  0
    5.6673   -0.7265    0.0000 O   0  0  0  0  0  0  0  0  0  0  0  0
    6.5240   -3.1793    0.0000 N   0  0  0  0  0  0  0  0  0  0  0  0
    7.9401   -2.6847    0.0000 C   0  0  0  0  0  0  0  0  0  0  0  0
    9.0765   -3.6637    0.0000 C   0  0  0  0  0  0  0  0  0  0  0  0
   10.4926   -3.1691    0.0000 C   0  0  0  0  0  0  0  0  0  0  0  0
   10.7723   -1.6954    0.0000 C   0  0  0  0  0  0  0  0  0  0  0  0
    9.6359   -0.7163    0.0000 C   0  0  0  0  0  0  0  0  0  0  0  0
    8.2198   -1.2110    0.0000 C   0  0  0  0  0  0  0  0  0  0  0  0
   12.1884   -1.2008    0.0000 F   0  0  0  0  0  0  0  0  0  0  0  0
  1  2  1  0
  2  3  1  0
  3  4  1  0
  4  5  1  0
  5  6  1  0
  6  7  1  0
  5  8  1  0
  8  9  1  0
  9 10  1  0
 10 11  1  0
 11 12  1  0
 12 13  1  0
 11 14  1  0
 14 15  2  0
 14 16  1  0
 16 17  1  0
 17 18  2  0
 18 19  1  0
 19 20  2  0
 20 21  1  0
 21 22  2  0
 19 23  1  0
 23 24  1  0
 24 25  2  0
 25 26  1  0
 26 27  2  0
 27 28  1  0
 28 29  2  0
 28 30  1  0
 27 31  1  0
 31 32  1  0
 32 33  2  0
 32 34  1  0
 34 35  1  0
 35 36  1  0
 34 37  1  0
 37 38  2  0
 37 39  1  0
 39 40  1  0
 40 41  2  0
 41 42  1  0
 42 43  2  0
 43 44  1  0
 44 45  2  0
 43 46  1  0
  7  2  1  0
 13  8  1  0
 22 17  1  0
 29 24  1  0
 36 34  1  0
 45 40  1  0
M  END
>  <BrandName>  (94) 


>  <Applicants>  (94) 
Eisai

>  <CHEMBL_ID>  (94) 
CHEMBL3039525

>  <Canonical_Smiles>  (94) 
CN1CCN(CC1)C2CCN(CC2)C(=O)Nc3cc(ccn3)Oc4ccc(c(c4)F)NC(=O)C5(CC5)C(=O)Nc6ccc(cc6)F

>  <Chirality>  (94) 
Achiral Molecule

>  <First_Approval>  (94) 
nan

>  <Phase>  (94) 
2.0

>  <SC_Patent>  (94) 
nan

>  <Synonyms>  (94) 
E-7050 | E7050 | GOLVATINIB

>  <Withdrawn>  (94) 
{''}

>  <Indications>  (94) 
nan

>  <Type>  (94) 
2

>  <targets_id>  (94) 
P08581|P35968

>  <Inchi>  (94) 
InChI=1S/C33H37F2N7O4/c1-40-16-18-41(19-17-40)24-9-14-42(15-10-24)32(45)39-29-21-26(8-13-36-29)46-25-6-7-28(27(35)20-25)38-31(44)33(11-12-33)30(43)37-23-4-2-22(34)3-5-23/h2-8,13,20-21,24H,9-12,14-19H2,1H3,(H,37,43)(H,38,44)(H,36,39,45)

>  <stdInchikey>  (94) 
UQRCJCNVNUFYDX-UHFFFAOYSA-N

>  <csid>  (94) 
17275597

>  <Links>  (94) 
|http://www.chemspider.com/Chemical-Structure.17275597.html|https://www.ebi.ac.uk/chembldb/compound/inspect/CHEMBL3039525|https://pubchem.ncbi.nlm.nih.gov/compound/16118392|https://go.drugbank.com/drugs/DB11977|https://www.rcsb.org/ligand/GV0|https://www.ebi.ac.uk/pdbe-srv/pdbechem/chemicalCompound/show/GV0|https://www.guidetopharmacology.org/GRAC/LigandDisplayForward?7956|https://zinc15.docking.org/substances/ZINC000043195317|https://precision.fda.gov/uniisearch/srs/unii/516Z3YP58E|https://www.bindingdb.org/bind/chemsearch/marvin/MolStructure.jsp?monomerid=50100615

>  <LinkName>  (94) 
|ChemSpider|ChEMBL|PubChem|DrugBank|RCSB|PDBe|Guide to Pharmacology|ZINC|FDA SRS|BindingDB

>  <lig_pdb_ID>  (94) 
GV0

>  <pdb_IDs>  (94) 
5ia5

>  <indicationDB>  (94) 


>  <uniprotId>  (94) 


>  <indicationG2P>  (94) 
None

>  <MW>  (94) 
633.3

>  <HBA>  (94) 
7

>  <HBD>  (94) 
3

>  <NRB>  (94) 
8

>  <TPSA>  (94) 
119.1

>  <LogP>  (94) 
4.8

>  <RoF>  (94) 
1

>  <Melting point>  (94) 
nan

>  <Targets>  (94) 
MET; KDR

>  <Kinase families>  (94) 
Tyr

>  <FDA_approved>  (94) 


$$$$
Agerafenib
     RDKit          2D

 37 40  0  0  0  0  0  0  0  0999 V2000
    7.4221    0.0068    0.0000 C   0  0  0  0  0  0  0  0  0  0  0  0
    6.6923   -1.3036    0.0000 C   0  0  0  0  0  0  0  0  0  0  0  0
    5.9624   -2.6141    0.0000 C   0  0  0  0  0  0  0  0  0  0  0  0
    5.3818   -0.5738    0.0000 C   0  0  0  0  0  0  0  0  0  0  0  0
    5.2019    0.9154    0.0000 C   0  0  0  0  0  0  0  0  0  0  0  0
    3.7301    1.2045    0.0000 C   0  0  0  0  0  0  0  0  0  0  0  0
    3.0002   -0.1060    0.0000 N   0  0  0  0  0  0  0  0  0  0  0  0
    4.0211   -1.2051    0.0000 O   0  0  0  0  0  0  0  0  0  0  0  0
    3.0988    2.5652    0.0000 N   0  0  0  0  0  0  0  0  0  0  0  0
    1.6048    2.6989    0.0000 C   0  0  0  0  0  0  0  0  0  0  0  0
    0.7420    1.4719    0.0000 O   0  0  0  0  0  0  0  0  0  0  0  0
    0.9736    4.0596    0.0000 N   0  0  0  0  0  0  0  0  0  0  0  0
   -0.5204    4.1933    0.0000 C   0  0  0  0  0  0  0  0  0  0  0  0
   -1.1517    5.5540    0.0000 C   0  0  0  0  0  0  0  0  0  0  0  0
   -2.6457    5.6878    0.0000 C   0  0  0  0  0  0  0  0  0  0  0  0
   -3.5085    4.4607    0.0000 C   0  0  0  0  0  0  0  0  0  0  0  0
   -2.8773    3.1000    0.0000 C   0  0  0  0  0  0  0  0  0  0  0  0
   -1.3832    2.9663    0.0000 C   0  0  0  0  0  0  0  0  0  0  0  0
   -3.7401    1.8730    0.0000 O   0  0  0  0  0  0  0  0  0  0  0  0
   -3.1089    0.5123    0.0000 C   0  0  0  0  0  0  0  0  0  0  0  0
   -3.9717   -0.7147    0.0000 C   0  0  0  0  0  0  0  0  0  0  0  0
   -5.4657   -0.5810    0.0000 C   0  0  0  0  0  0  0  0  0  0  0  0
   -6.3285   -1.8080    0.0000 C   0  0  0  0  0  0  0  0  0  0  0  0
   -5.6973   -3.1688    0.0000 C   0  0  0  0  0  0  0  0  0  0  0  0
   -4.2032   -3.3025    0.0000 C   0  0  0  0  0  0  0  0  0  0  0  0
   -3.3404   -2.0755    0.0000 C   0  0  0  0  0  0  0  0  0  0  0  0
   -1.8464   -2.2092    0.0000 N   0  0  0  0  0  0  0  0  0  0  0  0
   -0.9836   -0.9821    0.0000 C   0  0  0  0  0  0  0  0  0  0  0  0
   -1.6148    0.3786    0.0000 N   0  0  0  0  0  0  0  0  0  0  0  0
   -6.5601   -4.3958    0.0000 O   0  0  0  0  0  0  0  0  0  0  0  0
   -5.9288   -5.7565    0.0000 C   0  0  0  0  0  0  0  0  0  0  0  0
   -7.8225   -1.6743    0.0000 O   0  0  0  0  0  0  0  0  0  0  0  0
   -8.4537   -0.3136    0.0000 C   0  0  0  0  0  0  0  0  0  0  0  0
    8.0027   -2.0335    0.0000 C   0  0  0  0  0  0  0  0  0  0  0  0
    9.3132   -2.7633    0.0000 F   0  0  0  0  0  0  0  0  0  0  0  0
    8.7326   -0.7230    0.0000 F   0  0  0  0  0  0  0  0  0  0  0  0
    7.2729   -3.3439    0.0000 F   0  0  0  0  0  0  0  0  0  0  0  0
  1  2  1  0
  2  3  1  0
  2  4  1  0
  4  5  2  0
  5  6  1  0
  6  7  2  0
  7  8  1  0
  6  9  1  0
  9 10  1  0
 10 11  2  0
 10 12  1  0
 12 13  1  0
 13 14  2  0
 14 15  1  0
 15 16  2  0
 16 17  1  0
 17 18  2  0
 17 19  1  0
 19 20  1  0
 20 21  1  0
 21 22  2  0
 22 23  1  0
 23 24  2  0
 24 25  1  0
 25 26  2  0
 26 27  1  0
 27 28  2  0
 28 29  1  0
 24 30  1  0
 30 31  1  0
 23 32  1  0
 32 33  1  0
  2 34  1  0
 34 35  1  0
 34 36  1  0
 34 37  1  0
  8  4  1  0
 18 13  1  0
 29 20  2  0
 26 21  1  0
M  END
>  <BrandName>  (95) 


>  <Applicants>  (95) 
Ignyta

>  <CHEMBL_ID>  (95) 
CHEMBL2029988

>  <Canonical_Smiles>  (95) 
CC(C)(c1cc(no1)NC(=O)Nc2cccc(c2)Oc3c4cc(c(cc4ncn3)OC)OC)C(F)(F)F

>  <Chirality>  (95) 
Achiral Molecule

>  <First_Approval>  (95) 
nan

>  <Phase>  (95) 
2.0

>  <SC_Patent>  (95) 
nan

>  <Synonyms>  (95) 
AB-024 | AC-013773 | AGERAFENIB | CEP-32496 | RXDX 105 | RXDX-105

>  <Withdrawn>  (95) 
nan

>  <Indications>  (95) 
nan

>  <Type>  (95) 
nan

>  <targets_id>  (95) 
nan

>  <Inchi>  (95) 
InChI=1S/C24H22F3N5O5/c1-23(2,24(25,26)27)19-11-20(32-37-19)31-22(33)30-13-6-5-7-14(8-13)36-21-15-9-17(34-3)18(35-4)10-16(15)28-12-29-21/h5-12H,1-4H3,(H2,30,31,32,33)

>  <stdInchikey>  (95) 
DKNUPRMJNUQNHR-UHFFFAOYSA-N

>  <csid>  (95) 
28506650

>  <Links>  (95) 
|http://www.chemspider.com/Chemical-Structure.28506650.html|https://www.ebi.ac.uk/chembldb/compound/inspect/CHEMBL2029988|https://pubchem.ncbi.nlm.nih.gov/compound/56846693|https://go.drugbank.com/drugs/DB15068|https://www.guidetopharmacology.org/GRAC/LigandDisplayForward?7880|https://zinc15.docking.org/substances/ZINC000043207440|https://precision.fda.gov/uniisearch/srs/unii/78I4VEX88N|https://www.bindingdb.org/bind/chemsearch/marvin/MolStructure.jsp?monomerid=50382959

>  <LinkName>  (95) 
|ChemSpider|ChEMBL|PubChem|DrugBank|Guide to Pharmacology|ZINC|FDA SRS|BindingDB

>  <lig_pdb_ID>  (95) 


>  <pdb_IDs>  (95) 


>  <indicationDB>  (95) 


>  <uniprotId>  (95) 


>  <indicationG2P>  (95) 
None

>  <MW>  (95) 
517.2

>  <HBA>  (95) 
8

>  <HBD>  (95) 
2

>  <NRB>  (95) 
7

>  <TPSA>  (95) 
120.6

>  <LogP>  (95) 
5.9

>  <RoF>  (95) 
2

>  <Melting point>  (95) 
nan

>  <Targets>  (95) 
nan

>  <Kinase families>  (95) 


>  <FDA_approved>  (95) 


$$$$
Sacibertinib
     RDKit          2D

 43 47  0  0  0  0  0  0  0  0999 V2000
    5.7801   -8.6535    0.0000 C   0  0  0  0  0  0  0  0  0  0  0  0
    4.9031   -7.4366    0.0000 N   0  0  0  0  0  0  0  0  0  0  0  0
    3.4107   -7.5876    0.0000 C   0  0  0  0  0  0  0  0  0  0  0  0
    5.5185   -6.0686    0.0000 C   0  0  0  0  0  0  0  0  0  0  0  0
    4.6415   -4.8517    0.0000 C   0  0  0  0  0  0  0  0  0  0  0  0
    5.2568   -3.4837    0.0000 C   0  0  0  0  0  0  0  0  0  0  0  0
    4.3798   -2.2668    0.0000 C   0  0  0  0  0  0  0  0  0  0  0  0
    2.8875   -2.4179    0.0000 O   0  0  0  0  0  0  0  0  0  0  0  0
    4.9952   -0.8989    0.0000 N   0  0  0  0  0  0  0  0  0  0  0  0
    4.1182    0.3180    0.0000 C   0  0  0  0  0  0  0  0  0  0  0  0
    2.6258    0.1670    0.0000 C   0  0  0  0  0  0  0  0  0  0  0  0
    1.7488    1.3839    0.0000 C   0  0  0  0  0  0  0  0  0  0  0  0
    0.2565    1.2328    0.0000 C   0  0  0  0  0  0  0  0  0  0  0  0
   -0.3589   -0.1351    0.0000 N   0  0  0  0  0  0  0  0  0  0  0  0
   -1.8513   -0.2862    0.0000 C   0  0  0  0  0  0  0  0  0  0  0  0
   -2.7283    0.9307    0.0000 C   0  0  0  0  0  0  0  0  0  0  0  0
   -4.2207    0.7797    0.0000 C   0  0  0  0  0  0  0  0  0  0  0  0
   -4.8360   -0.5883    0.0000 C   0  0  0  0  0  0  0  0  0  0  0  0
   -6.3284   -0.7393    0.0000 O   0  0  0  0  0  0  0  0  0  0  0  0
   -7.2054    0.4776    0.0000 C   0  0  0  0  0  0  0  0  0  0  0  0
   -8.6978    0.3265    0.0000 C   0  0  0  0  0  0  0  0  0  0  0  0
   -9.5748    1.5435    0.0000 C   0  0  0  0  0  0  0  0  0  0  0  0
  -11.0672    1.3924    0.0000 C   0  0  0  0  0  0  0  0  0  0  0  0
  -11.6825    0.0244    0.0000 C   0  0  0  0  0  0  0  0  0  0  0  0
  -10.8055   -1.1925    0.0000 C   0  0  0  0  0  0  0  0  0  0  0  0
   -9.3132   -1.0414    0.0000 N   0  0  0  0  0  0  0  0  0  0  0  0
   -3.9590   -1.8052    0.0000 C   0  0  0  0  0  0  0  0  0  0  0  0
   -4.5744   -3.1731    0.0000 Cl  0  0  0  0  0  0  0  0  0  0  0  0
   -2.4667   -1.6541    0.0000 C   0  0  0  0  0  0  0  0  0  0  0  0
   -0.6205    2.4498    0.0000 C   0  0  0  0  0  0  0  0  0  0  0  0
   -2.1129    2.2987    0.0000 C   0  0  0  0  0  0  0  0  0  0  0  0
   -3.6053    2.1477    0.0000 N   0  0  0  0  0  0  0  0  0  0  0  0
   -0.0052    3.8177    0.0000 C   0  0  0  0  0  0  0  0  0  0  0  0
    1.4872    3.9688    0.0000 N   0  0  0  0  0  0  0  0  0  0  0  0
    2.3642    2.7519    0.0000 C   0  0  0  0  0  0  0  0  0  0  0  0
    3.8566    2.9029    0.0000 C   0  0  0  0  0  0  0  0  0  0  0  0
    4.7336    1.6860    0.0000 C   0  0  0  0  0  0  0  0  0  0  0  0
    6.2260    1.8371    0.0000 O   0  0  0  0  0  0  0  0  0  0  0  0
    6.8413    3.2050    0.0000 C   0  0  0  0  0  0  0  0  0  0  0  0
    6.0963    4.5069    0.0000 C   0  0  0  0  0  0  0  0  0  0  0  0
    7.1043    5.6178    0.0000 C   0  0  0  0  0  0  0  0  0  0  0  0
    8.4723    5.0024    0.0000 O   0  0  0  0  0  0  0  0  0  0  0  0
    8.3097    3.5112    0.0000 C   0  0  0  0  0  0  0  0  0  0  0  0
  1  2  1  0
  2  3  1  0
  2  4  1  0
  4  5  1  0
  5  6  2  0
  6  7  1  0
  7  8  2  0
  7  9  1  0
  9 10  1  0
 10 11  2  0
 11 12  1  0
 12 13  2  0
 13 14  1  0
 14 15  1  0
 15 16  2  0
 16 17  1  0
 17 18  2  0
 18 19  1  0
 19 20  1  0
 20 21  1  0
 21 22  2  0
 22 23  1  0
 23 24  2  0
 24 25  1  0
 25 26  2  0
 18 27  1  0
 27 28  1  0
 27 29  2  0
 13 30  1  0
 30 31  1  0
 31 32  3  0
 30 33  2  0
 33 34  1  0
 34 35  2  0
 35 36  1  0
 36 37  2  0
 37 38  1  0
 39 38  1  1
 39 40  1  0
 40 41  1  0
 41 42  1  0
 42 43  1  0
 37 10  1  0
 43 39  1  0
 35 12  1  0
 29 15  1  0
 26 21  1  0
M  END
>  <BrandName>  (96) 


>  <Applicants>  (96) 
('',)

>  <CHEMBL_ID>  (96) 
CHEMBL5314440

>  <Canonical_Smiles>  (96) 
CN(C)C/C=C/C(=O)Nc1cc2c(Nc3ccc(OCc4ccccn4)c(Cl)c3)c(C#N)cnc2cc1O[C@H]1CCOC1

>  <Chirality>  (96) 
Unknown

>  <First_Approval>  (96) 
nan

>  <Phase>  (96) 
2.0

>  <SC_Patent>  (96) 
nan

>  <Synonyms>  (96) 
SACIBERTINIB

>  <Withdrawn>  (96) 
nan

>  <Indications>  (96) 
nan

>  <Type>  (96) 
nan

>  <targets_id>  (96) 
nan

>  <Inchi>  (96) 
InChI=1S/C32H31ClN6O4/c1-39(2)12-5-7-31(40)38-28-15-25-27(16-30(28)43-24-10-13-41-20-24)36-18-21(17-34)32(25)37-22-8-9-29(26(33)14-22)42-19-23-6-3-4-11-35-23/h3-9,11,14-16,18,24H,10,12-13,19-20H2,1-2H3,(H,36,37)(H,38,40)/b7-5+/t24-/m0/s1

>  <stdInchikey>  (96) 
ZGYIXVSQHOKQRZ-COIATFDQSA-N

>  <csid>  (96) 
128921859

>  <Links>  (96) 
|http://www.chemspider.com/Chemical-Structure.128921859.html|https://www.ebi.ac.uk/chembldb/compound/inspect/CHEMBL5314440|https://pubchem.ncbi.nlm.nih.gov/compound/89496273

>  <LinkName>  (96) 
|ChemSpider|ChEMBL|PubChem

>  <lig_pdb_ID>  (96) 


>  <pdb_IDs>  (96) 


>  <indicationDB>  (96) 


>  <uniprotId>  (96) 


>  <indicationG2P>  (96) 


>  <MW>  (96) 
598.2

>  <HBA>  (96) 
9

>  <HBD>  (96) 
2

>  <NRB>  (96) 
11

>  <TPSA>  (96) 
121.6

>  <LogP>  (96) 
5.7

>  <RoF>  (96) 
2

>  <Melting point>  (96) 
nan

>  <Targets>  (96) 
nan

>  <Kinase families>  (96) 


>  <FDA_approved>  (96) 


$$$$
Resencatinib
     RDKit          2D

 40 45  0  0  0  0  0  0  0  0999 V2000
   -3.8110    4.6983    0.0000 C   0  0  0  0  0  0  0  0  0  0  0  0
   -4.8694    3.6353    0.0000 C   0  0  0  0  0  0  0  0  0  0  0  0
   -5.9278    2.5724    0.0000 C   0  0  0  0  0  0  0  0  0  0  0  0
   -6.9861    1.5095    0.0000 C   0  0  0  0  0  0  0  0  0  0  0  0
   -6.9907    3.6308    0.0000 O   0  0  0  0  0  0  0  0  0  0  0  0
   -4.8648    1.5140    0.0000 C   0  0  0  0  0  0  0  0  0  0  0  0
   -5.2500    0.0643    0.0000 O   0  0  0  0  0  0  0  0  0  0  0  0
   -4.1870   -0.9941    0.0000 C   0  0  0  0  0  0  0  0  0  0  0  0
   -2.7390   -0.6028    0.0000 C   0  0  0  0  0  0  0  0  0  0  0  0
   -1.6760   -1.6611    0.0000 C   0  0  0  0  0  0  0  0  0  0  0  0
   -0.2280   -1.2698    0.0000 C   0  0  0  0  0  0  0  0  0  0  0  0
    0.8349   -2.3282    0.0000 C   0  0  0  0  0  0  0  0  0  0  0  0
    2.2830   -1.9369    0.0000 C   0  0  0  0  0  0  0  0  0  0  0  0
    2.6681   -0.4872    0.0000 C   0  0  0  0  0  0  0  0  0  0  0  0
    4.1162   -0.0958    0.0000 N   0  0  0  0  0  0  0  0  0  0  0  0
    5.1791   -1.1542    0.0000 C   0  0  0  0  0  0  0  0  0  0  0  0
    6.6272   -0.7629    0.0000 C   0  0  0  0  0  0  0  0  0  0  0  0
    7.0123    0.6868    0.0000 C   0  0  0  0  0  0  0  0  0  0  0  0
    5.9494    1.7452    0.0000 C   0  0  0  0  0  0  0  0  0  0  0  0
    4.5013    1.3539    0.0000 C   0  0  0  0  0  0  0  0  0  0  0  0
    5.5642    0.2955    0.0000 N   0  0  0  0  0  0  0  0  0  0  0  0
    4.1162   -0.0958    0.0000 C   0  0  0  0  0  0  0  0  0  0  0  0
    3.0532    0.9626    0.0000 C   0  0  0  0  0  0  0  0  0  0  0  0
    3.4384    2.4123    0.0000 C   0  0  0  0  0  0  0  0  0  0  0  0
    2.3754    3.4707    0.0000 C   0  0  0  0  0  0  0  0  0  0  0  0
    0.9274    3.0793    0.0000 C   0  0  0  0  0  0  0  0  0  0  0  0
   -0.1355    4.1377    0.0000 O   0  0  0  0  0  0  0  0  0  0  0  0
    0.2496    5.5874    0.0000 C   0  0  0  0  0  0  0  0  0  0  0  0
    0.5423    1.6296    0.0000 N   0  0  0  0  0  0  0  0  0  0  0  0
    1.6052    0.5712    0.0000 C   0  0  0  0  0  0  0  0  0  0  0  0
    1.6052    0.5712    0.0000 N   0  0  0  0  0  0  0  0  0  0  0  0
    0.1571    0.1799    0.0000 C   0  0  0  0  0  0  0  0  0  0  0  0
   -2.0612   -3.1109    0.0000 C   0  0  0  0  0  0  0  0  0  0  0  0
   -1.2415   -4.3671    0.0000 C   0  0  0  0  0  0  0  0  0  0  0  0
    0.2566   -4.4424    0.0000 C   0  0  0  0  0  0  0  0  0  0  0  0
    1.7547   -4.5177    0.0000 N   0  0  0  0  0  0  0  0  0  0  0  0
   -2.1830   -5.5348    0.0000 C   0  0  0  0  0  0  0  0  0  0  0  0
   -3.5845   -5.0003    0.0000 N   0  0  0  0  0  0  0  0  0  0  0  0
   -3.5092   -3.5022    0.0000 N   0  0  0  0  0  0  0  0  0  0  0  0
   -4.5722   -2.4438    0.0000 C   0  0  0  0  0  0  0  0  0  0  0  0
  1  2  3  0
  2  3  1  0
  3  4  1  1
  3  5  1  0
  3  6  1  0
  6  7  1  0
  7  8  1  0
  8  9  1  0
  9 10  2  0
 10 11  1  0
 11 12  2  0
 12 13  1  0
 13 14  2  0
 14 15  1  0
 15 16  1  0
 16 17  1  0
 17 18  1  0
 18 19  1  0
 19 20  1  0
 19 21  1  0
 21 22  1  0
 22 23  1  0
 23 24  2  0
 24 25  1  0
 25 26  2  0
 26 27  1  0
 27 28  1  0
 26 29  1  0
 29 30  2  0
 14 31  1  0
 31 32  2  0
 10 33  1  0
 33 34  2  0
 34 35  1  0
 35 36  3  0
 34 37  1  0
 37 38  2  0
 38 39  1  0
 39 40  1  0
 40  8  2  0
 32 11  1  0
 39 33  1  0
 20 15  1  0
 30 23  1  0
 21 17  1  0
M  END
>  <BrandName>  (97) 


>  <Applicants>  (97) 
('',)

>  <CHEMBL_ID>  (97) 
CHEMBL5314480

>  <Canonical_Smiles>  (97) 
C#C[C@@](C)(O)COc1cc(-c2ccc(N3CC4CC(C3)N4Cc3ccc(OC)nc3)nc2)c2c(C#N)cnn2c1

>  <Chirality>  (97) 
Unknown

>  <First_Approval>  (97) 
nan

>  <Phase>  (97) 
2.0

>  <SC_Patent>  (97) 
nan

>  <Synonyms>  (97) 
RESENCATINIB

>  <Withdrawn>  (97) 
nan

>  <Indications>  (97) 
nan

>  <Type>  (97) 
nan

>  <targets_id>  (97) 
nan

>  <Inchi>  (97) 
InChI=1S/C30H29N7O3/c1-4-30(2,38)19-40-25-10-26(29-22(11-31)14-34-37(29)18-25)21-6-7-27(32-13-21)35-16-23-9-24(17-35)36(23)15-20-5-8-28(39-3)33-12-20/h1,5-8,10,12-14,18,23-24,38H,9,15-17,19H2,2-3H3/t23?,24?,30-/m1/s1

>  <stdInchikey>  (97) 
WNPSOODWDSNATA-DPHZAUTASA-N

>  <csid>  (97) 
128922181

>  <Links>  (97) 
|http://www.chemspider.com/Chemical-Structure.128922181.html|https://www.ebi.ac.uk/chembldb/compound/inspect/CHEMBL5314480|https://pubchem.ncbi.nlm.nih.gov/compound/155296110

>  <LinkName>  (97) 
|ChemSpider|ChEMBL|PubChem

>  <lig_pdb_ID>  (97) 


>  <pdb_IDs>  (97) 


>  <indicationDB>  (97) 


>  <uniprotId>  (97) 


>  <indicationG2P>  (97) 


>  <MW>  (97) 
535.2

>  <HBA>  (97) 
10

>  <HBD>  (97) 
1

>  <NRB>  (97) 
8

>  <TPSA>  (97) 
112.0

>  <LogP>  (97) 
2.9

>  <RoF>  (97) 
1

>  <Melting point>  (97) 
nan

>  <Targets>  (97) 
nan

>  <Kinase families>  (97) 


>  <FDA_approved>  (97) 


$$$$
Pegcantratinib
     RDKit          2D

 40 48  0  0  0  0  0  0  0  0999 V2000
    8.7173   -3.2355    0.0000 C   0  0  0  0  0  0  0  0  0  0  0  0
    8.2687   -1.8041    0.0000 O   0  0  0  0  0  0  0  0  0  0  0  0
    6.8049   -1.4769    0.0000 C   0  0  0  0  0  0  0  0  0  0  0  0
    6.3563   -0.0455    0.0000 C   0  0  0  0  0  0  0  0  0  0  0  0
    4.8925    0.2817    0.0000 N   0  0  0  0  0  0  0  0  0  0  0  0
    4.2968    1.6584    0.0000 C   0  0  0  0  0  0  0  0  0  0  0  0
    5.0603    2.9495    0.0000 O   0  0  0  0  0  0  0  0  0  0  0  0
    2.8034    1.5172    0.0000 O   0  0  0  0  0  0  0  0  0  0  0  0
    2.4762    0.0533    0.0000 C   0  0  0  0  0  0  0  0  0  0  0  0
    2.1489   -1.4105    0.0000 C   0  0  0  0  0  0  0  0  0  0  0  0
    0.5954   -1.8209    0.0000 C   0  0  0  0  0  0  0  0  0  0  0  0
    1.5254   -0.6440    0.0000 O   0  0  0  0  0  0  0  0  0  0  0  0
    1.1851    0.8169    0.0000 C   0  0  0  0  0  0  0  0  0  0  0  0
    2.0913    2.0122    0.0000 C   0  0  0  0  0  0  0  0  0  0  0  0
   -0.1693    1.4617    0.0000 N   0  0  0  0  0  0  0  0  0  0  0  0
   -0.3773    2.9472    0.0000 C   0  0  0  0  0  0  0  0  0  0  0  0
    0.5875    4.0958    0.0000 C   0  0  0  0  0  0  0  0  0  0  0  0
    0.0752    5.5056    0.0000 C   0  0  0  0  0  0  0  0  0  0  0  0
   -1.4019    5.7668    0.0000 C   0  0  0  0  0  0  0  0  0  0  0  0
   -2.3666    4.6183    0.0000 C   0  0  0  0  0  0  0  0  0  0  0  0
   -1.8543    3.2085    0.0000 C   0  0  0  0  0  0  0  0  0  0  0  0
   -2.5592    1.8844    0.0000 C   0  0  0  0  0  0  0  0  0  0  0  0
   -4.0239    1.2868    0.0000 C   0  0  0  0  0  0  0  0  0  0  0  0
   -4.3512   -0.1770    0.0000 C   0  0  0  0  0  0  0  0  0  0  0  0
   -3.2470   -1.1924    0.0000 C   0  0  0  0  0  0  0  0  0  0  0  0
   -3.1730   -2.6905    0.0000 C   0  0  0  0  0  0  0  0  0  0  0  0
   -4.2369   -3.7480    0.0000 C   0  0  0  0  0  0  0  0  0  0  0  0
   -3.8530   -5.1980    0.0000 C   0  0  0  0  0  0  0  0  0  0  0  0
   -2.4053   -5.5906    0.0000 C   0  0  0  0  0  0  0  0  0  0  0  0
   -1.3415   -4.5332    0.0000 C   0  0  0  0  0  0  0  0  0  0  0  0
   -1.7253   -3.0831    0.0000 C   0  0  0  0  0  0  0  0  0  0  0  0
   -0.9046   -1.8276    0.0000 N   0  0  0  0  0  0  0  0  0  0  0  0
   -1.8450   -0.6590    0.0000 C   0  0  0  0  0  0  0  0  0  0  0  0
   -1.5178    0.8048    0.0000 C   0  0  0  0  0  0  0  0  0  0  0  0
   -5.8445   -0.3182    0.0000 C   0  0  0  0  0  0  0  0  0  0  0  0
   -6.6081   -1.6093    0.0000 O   0  0  0  0  0  0  0  0  0  0  0  0
   -6.4402    1.0585    0.0000 N   0  0  0  0  0  0  0  0  0  0  0  0
   -5.3150    2.0504    0.0000 C   0  0  0  0  0  0  0  0  0  0  0  0
    3.7673   -0.7102    0.0000 C   0  0  0  0  0  0  0  0  0  0  0  0
    3.9084   -2.2036    0.0000 O   0  0  0  0  0  0  0  0  0  0  0  0
  1  2  1  0
  2  3  1  0
  3  4  1  0
  4  5  1  0
  5  6  1  0
  6  7  2  0
  6  8  1  0
  8  9  1  0
  9 10  1  6
 11 10  1  6
 11 12  1  0
 12 13  1  0
 13 14  1  1
 13 15  1  0
 15 16  1  0
 16 17  2  0
 17 18  1  0
 18 19  2  0
 19 20  1  0
 20 21  2  0
 21 22  1  0
 22 23  2  0
 23 24  1  0
 24 25  2  0
 25 26  1  0
 26 27  2  0
 27 28  1  0
 28 29  2  0
 29 30  1  0
 30 31  2  0
 31 32  1  0
 32 33  1  0
 33 34  2  0
 24 35  1  0
 35 36  2  0
 35 37  1  0
 37 38  1  0
  9 39  1  0
 39 40  2  0
 39  5  1  0
 13  9  1  0
 34 15  1  0
 32 11  1  0
 21 16  1  0
 34 22  1  0
 38 23  1  0
 33 25  1  0
 31 26  1  0
M  END
>  <BrandName>  (98) 


>  <Applicants>  (98) 
Cephalon

>  <CHEMBL_ID>  (98) 
CHEMBL4297182

>  <Canonical_Smiles>  (98) 
COCCN1C(=O)O[C@@]2(C[C@H]3O[C@]2(C)n2c4ccccc4c4c5c(c6c7ccccc7n3c6c42)C(=O)NC5)C1=O

>  <Chirality>  (98) 
Single Stereoisomer

>  <First_Approval>  (98) 
nan

>  <Phase>  (98) 
2.0

>  <SC_Patent>  (98) 
nan

>  <Synonyms>  (98) 
CT-327 | CT327 | PEGCANTRATINIB | SNA-120

>  <Withdrawn>  (98) 
nan

>  <Indications>  (98) 
nan

>  <Type>  (98) 
nan

>  <targets_id>  (98) 
nan

>  <Inchi>  (98) 
InChI=1S/C30H24N4O6/c1-29-30(27(36)32(11-12-38-2)28(37)40-30)13-20(39-29)33-18-9-5-3-7-15(18)22-23-17(14-31-26(23)35)21-16-8-4-6-10-19(16)34(29)25(21)24(22)33/h3-10,20H,11-14H2,1-2H3,(H,31,35)/t20-,29+,30+/m1/s1

>  <stdInchikey>  (98) 
SHWPFRVVBIKGAT-LYWBODIJSA-N

>  <csid>  (98) 
88293788

>  <Links>  (98) 
|http://www.chemspider.com/Chemical-Structure.88293788.html|https://www.ebi.ac.uk/chembldb/compound/inspect/CHEMBL4297182|https://pubchem.ncbi.nlm.nih.gov/compound/91824201

>  <LinkName>  (98) 
|ChemSpider|ChEMBL|PubChem

>  <lig_pdb_ID>  (98) 


>  <pdb_IDs>  (98) 


>  <indicationDB>  (98) 


>  <uniprotId>  (98) 


>  <indicationG2P>  (98) 


>  <MW>  (98) 
536.2

>  <HBA>  (98) 
8

>  <HBD>  (98) 
1

>  <NRB>  (98) 
3

>  <TPSA>  (98) 
104.0

>  <LogP>  (98) 
4.1

>  <RoF>  (98) 
1

>  <Melting point>  (98) 
nan

>  <Targets>  (98) 
nan

>  <Kinase families>  (98) 


>  <FDA_approved>  (98) 


$$$$
Serabelisib
     RDKit          2D

 27 31  0  0  0  0  0  0  0  0999 V2000
   -2.4770   -1.3012    0.0000 C   0  0  0  0  0  0  0  0  0  0  0  0
   -3.7460   -2.1009    0.0000 C   0  0  0  0  0  0  0  0  0  0  0  0
   -5.0731   -1.4016    0.0000 C   0  0  0  0  0  0  0  0  0  0  0  0
   -5.1311    0.0972    0.0000 C   0  0  0  0  0  0  0  0  0  0  0  0
   -3.8620    0.8969    0.0000 C   0  0  0  0  0  0  0  0  0  0  0  0
   -2.5349    0.1977    0.0000 C   0  0  0  0  0  0  0  0  0  0  0  0
   -1.2659    0.9973    0.0000 C   0  0  0  0  0  0  0  0  0  0  0  0
   -1.3238    2.4962    0.0000 C   0  0  0  0  0  0  0  0  0  0  0  0
   -0.0547    3.2958    0.0000 C   0  0  0  0  0  0  0  0  0  0  0  0
    1.2723    2.5966    0.0000 C   0  0  0  0  0  0  0  0  0  0  0  0
    2.6799    3.1149    0.0000 N   0  0  0  0  0  0  0  0  0  0  0  0
    3.6078    1.9364    0.0000 C   0  0  0  0  0  0  0  0  0  0  0  0
    2.7737    0.6897    0.0000 C   0  0  0  0  0  0  0  0  0  0  0  0
    1.3303    1.0977    0.0000 N   0  0  0  0  0  0  0  0  0  0  0  0
    0.0612    0.2981    0.0000 C   0  0  0  0  0  0  0  0  0  0  0  0
    3.2920   -0.7179    0.0000 C   0  0  0  0  0  0  0  0  0  0  0  0
    2.3322   -1.8706    0.0000 O   0  0  0  0  0  0  0  0  0  0  0  0
    4.7702   -0.9729    0.0000 N   0  0  0  0  0  0  0  0  0  0  0  0
    5.2885   -2.3805    0.0000 C   0  0  0  0  0  0  0  0  0  0  0  0
    6.7667   -2.6354    0.0000 C   0  0  0  0  0  0  0  0  0  0  0  0
    7.7266   -1.4827    0.0000 O   0  0  0  0  0  0  0  0  0  0  0  0
    7.2083   -0.0751    0.0000 C   0  0  0  0  0  0  0  0  0  0  0  0
    5.7301    0.1798    0.0000 C   0  0  0  0  0  0  0  0  0  0  0  0
   -6.5745    0.5053    0.0000 N   0  0  0  0  0  0  0  0  0  0  0  0
   -7.4086   -0.7414    0.0000 C   0  0  0  0  0  0  0  0  0  0  0  0
   -6.4807   -1.9200    0.0000 O   0  0  0  0  0  0  0  0  0  0  0  0
   -8.9075   -0.7994    0.0000 N   0  0  0  0  0  0  0  0  0  0  0  0
  1  2  2  0
  2  3  1  0
  3  4  2  0
  4  5  1  0
  5  6  2  0
  6  7  1  0
  7  8  1  0
  8  9  2  0
  9 10  1  0
 10 11  2  0
 11 12  1  0
 12 13  2  0
 13 14  1  0
 14 15  1  0
 13 16  1  0
 16 17  2  0
 16 18  1  0
 18 19  1  0
 19 20  1  0
 20 21  1  0
 21 22  1  0
 22 23  1  0
  4 24  1  0
 24 25  2  0
 25 26  1  0
 25 27  1  0
  6  1  1  0
 26  3  1  0
 15  7  2  0
 14 10  1  0
 23 18  1  0
M  END
>  <BrandName>  (99) 


>  <Applicants>  (99) 
Takeda

>  <CHEMBL_ID>  (99) 
CHEMBL3935857

>  <Canonical_Smiles>  (99) 
c1cc2c(cc1c3ccc4ncc(n4c3)C(=O)N5CCOCC5)nc(o2)N

>  <Chirality>  (99) 
Achiral Molecule

>  <First_Approval>  (99) 
nan

>  <Phase>  (99) 
2.0

>  <SC_Patent>  (99) 
nan

>  <Synonyms>  (99) 
AGN-PC-0DB6FL | INK-1117 | INK1117 | MLN-1117 | MLN1117 | SERABELISIB | TAK-117

>  <Withdrawn>  (99) 
nan

>  <Indications>  (99) 
nan

>  <Type>  (99) 
nan

>  <targets_id>  (99) 
nan

>  <Inchi>  (99) 
InChI=1S/C19H17N5O3/c20-19-22-14-9-12(1-3-16(14)27-19)13-2-4-17-21-10-15(24(17)11-13)18(25)23-5-7-26-8-6-23/h1-4,9-11H,5-8H2,(H2,20,22)

>  <stdInchikey>  (99) 
BLGWHBSBBJNKJO-UHFFFAOYSA-N

>  <csid>  (99) 
35143228

>  <Links>  (99) 
|http://www.chemspider.com/Chemical-Structure.35143228.html|https://www.ebi.ac.uk/chembldb/compound/inspect/CHEMBL3935857|https://pubchem.ncbi.nlm.nih.gov/compound/70798655|https://go.drugbank.com/drugs/DB14935|https://www.guidetopharmacology.org/GRAC/LigandDisplayForward?8969|https://zinc15.docking.org/substances/ZINC000146965425|https://precision.fda.gov/uniisearch/srs/unii/43J9Q56T3W|https://www.bindingdb.org/bind/chemsearch/marvin/MolStructure.jsp?monomerid=119531

>  <LinkName>  (99) 
|ChemSpider|ChEMBL|PubChem|DrugBank|Guide to Pharmacology|ZINC|FDA SRS|BindingDB

>  <lig_pdb_ID>  (99) 


>  <pdb_IDs>  (99) 


>  <indicationDB>  (99) 


>  <uniprotId>  (99) 


>  <indicationG2P>  (99) 
None

>  <MW>  (99) 
363.1

>  <HBA>  (99) 
7

>  <HBD>  (99) 
1

>  <NRB>  (99) 
2

>  <TPSA>  (99) 
98.9

>  <LogP>  (99) 
2.2

>  <RoF>  (99) 
0

>  <Melting point>  (99) 
nan

>  <Targets>  (99) 
nan

>  <Kinase families>  (99) 


>  <FDA_approved>  (99) 


$$$$
Tomivosertib
     RDKit          2D

 25 28  0  0  0  0  0  0  0  0999 V2000
   -0.4206    3.4185    0.0000 C   0  0  0  0  0  0  0  0  0  0  0  0
   -0.0604    1.9624    0.0000 C   0  0  0  0  0  0  0  0  0  0  0  0
   -1.1414    0.9224    0.0000 C   0  0  0  0  0  0  0  0  0  0  0  0
   -0.7812   -0.5337    0.0000 C   0  0  0  0  0  0  0  0  0  0  0  0
    0.6600   -0.9498    0.0000 C   0  0  0  0  0  0  0  0  0  0  0  0
    1.0201   -2.4060    0.0000 O   0  0  0  0  0  0  0  0  0  0  0  0
    1.7409    0.0901    0.0000 N   0  0  0  0  0  0  0  0  0  0  0  0
    1.3807    1.5463    0.0000 C   0  0  0  0  0  0  0  0  0  0  0  0
    2.6542    2.3388    0.0000 C   0  0  0  0  0  0  0  0  0  0  0  0
    2.7617    3.8349    0.0000 O   0  0  0  0  0  0  0  0  0  0  0  0
    3.8015    1.3725    0.0000 N   0  0  0  0  0  0  0  0  0  0  0  0
    3.2370   -0.0173    0.0000 C   0  0  0  0  0  0  0  0  0  0  0  0
    2.5304   -1.3404    0.0000 C   0  0  0  0  0  0  0  0  0  0  0  0
    3.3229   -2.6139    0.0000 C   0  0  0  0  0  0  0  0  0  0  0  0
    4.8221   -2.5643    0.0000 C   0  0  0  0  0  0  0  0  0  0  0  0
    5.5287   -1.2412    0.0000 C   0  0  0  0  0  0  0  0  0  0  0  0
    4.7362    0.0323    0.0000 C   0  0  0  0  0  0  0  0  0  0  0  0
   -1.8621   -1.5737    0.0000 N   0  0  0  0  0  0  0  0  0  0  0  0
   -3.3032   -1.1576    0.0000 C   0  0  0  0  0  0  0  0  0  0  0  0
   -3.6634    0.2985    0.0000 C   0  0  0  0  0  0  0  0  0  0  0  0
   -5.1045    0.7147    0.0000 C   0  0  0  0  0  0  0  0  0  0  0  0
   -6.1855   -0.3253    0.0000 N   0  0  0  0  0  0  0  0  0  0  0  0
   -5.8253   -1.7814    0.0000 C   0  0  0  0  0  0  0  0  0  0  0  0
   -4.3842   -2.1976    0.0000 N   0  0  0  0  0  0  0  0  0  0  0  0
   -5.4647    2.1708    0.0000 N   0  0  0  0  0  0  0  0  0  0  0  0
  1  2  1  0
  2  3  1  0
  3  4  2  0
  4  5  1  0
  5  6  2  0
  5  7  1  0
  7  8  1  0
  8  9  1  0
  9 10  2  0
  9 11  1  0
 11 12  1  0
 12 13  1  0
 13 14  1  0
 14 15  1  0
 15 16  1  0
 16 17  1  0
  4 18  1  0
 18 19  1  0
 19 20  2  0
 20 21  1  0
 21 22  2  0
 22 23  1  0
 23 24  2  0
 21 25  1  0
  8  2  2  0
 12  7  1  0
 17 12  1  0
 24 19  1  0
M  END
>  <BrandName>  (100) 


>  <Applicants>  (100) 
Effector Therapeutics

>  <CHEMBL_ID>  (100) 
CHEMBL4073443

>  <Canonical_Smiles>  (100) 
Cc1cc(c(=O)n2c1C(=O)NC23CCCCC3)Nc4cc(ncn4)N

>  <Chirality>  (100) 
Achiral Molecule

>  <First_Approval>  (100) 
nan

>  <Phase>  (100) 
2.0

>  <SC_Patent>  (100) 
nan

>  <Synonyms>  (100) 
EFT 508 | EFT-508 | EFT508 | TOMIVOSERTIB

>  <Withdrawn>  (100) 
nan

>  <Indications>  (100) 
Tomivosertib, also known as eFT508 is a MNK1/2 inhibitor. Tomivosertib binds to and inhibits the activity of MNK1 and 2. This prevents MNK1/2-mediated signaling, and inhibits the phosphorylation of certain regulatory proteins, including eukaryotic translation initiation factor 4E (eIF4E), that regulate the translation of messenger RNAs (mRNAs) involved in tumor cell proliferation, angiogenesis, survival and immune signaling

>  <Type>  (100) 
nan

>  <targets_id>  (100) 
nan

>  <Inchi>  (100) 
InChI=1S/C17H20N6O2/c1-10-7-11(21-13-8-12(18)19-9-20-13)16(25)23-14(10)15(24)22-17(23)5-3-2-4-6-17/h7-9H,2-6H2,1H3,(H,22,24)(H3,18,19,20,21)

>  <stdInchikey>  (100) 
HKTBYUWLRDZAJK-UHFFFAOYSA-N

>  <csid>  (100) 
57617704

>  <Links>  (100) 
|http://www.chemspider.com/Chemical-Structure.57617704.html|https://www.ebi.ac.uk/chembldb/compound/inspect/CHEMBL4073443|https://pubchem.ncbi.nlm.nih.gov/compound/118598754|https://go.drugbank.com/drugs/DB15219|https://www.rcsb.org/ligand/N45|https://www.ebi.ac.uk/pdbe-srv/pdbechem/chemicalCompound/show/N45|https://www.guidetopharmacology.org/GRAC/LigandDisplayForward?10167|https://zinc15.docking.org/substances/ZINC000575623807|https://precision.fda.gov/uniisearch/srs/unii/U2H19X4WBV|https://www.bindingdb.org/bind/chemsearch/marvin/MolStructure.jsp?monomerid=50263263

>  <LinkName>  (100) 
|ChemSpider|ChEMBL|PubChem|DrugBank|RCSB|PDBe|Guide to Pharmacology|ZINC|FDA SRS|BindingDB

>  <lig_pdb_ID>  (100) 
N45

>  <pdb_IDs>  (100) 
6ck6

>  <indicationDB>  (100) 


>  <uniprotId>  (100) 


>  <indicationG2P>  (100) 
None

>  <MW>  (100) 
340.2

>  <HBA>  (100) 
7

>  <HBD>  (100) 
3

>  <NRB>  (100) 
2

>  <TPSA>  (100) 
114.9

>  <LogP>  (100) 
1.6

>  <RoF>  (100) 
0

>  <Melting point>  (100) 
nan

>  <Targets>  (100) 
nan

>  <Kinase families>  (100) 


>  <FDA_approved>  (100) 


$$$$
Milrebrutinib
     RDKit          2D

 43 50  0  0  0  0  0  0  0  0999 V2000
    0.1325    5.1427    0.0000 N   0  0  0  0  0  0  0  0  0  0  0  0
   -0.6976    3.8934    0.0000 C   0  0  0  0  0  0  0  0  0  0  0  0
   -0.0308    2.5498    0.0000 N   0  0  0  0  0  0  0  0  0  0  0  0
   -0.8610    1.3005    0.0000 C   0  0  0  0  0  0  0  0  0  0  0  0
   -0.1942   -0.0432    0.0000 C   0  0  0  0  0  0  0  0  0  0  0  0
   -1.0244   -1.2925    0.0000 C   0  0  0  0  0  0  0  0  0  0  0  0
   -0.3575   -2.6361    0.0000 C   0  0  0  0  0  0  0  0  0  0  0  0
    1.1395   -2.7304    0.0000 C   0  0  0  0  0  0  0  0  0  0  0  0
    1.9697   -1.4811    0.0000 C   0  0  0  0  0  0  0  0  0  0  0  0
    3.4667   -1.5754    0.0000 N   0  0  0  0  0  0  0  0  0  0  0  0
    4.1336   -2.9190    0.0000 C   0  0  0  0  0  0  0  0  0  0  0  0
    5.6306   -3.0133    0.0000 C   0  0  0  0  0  0  0  0  0  0  0  0
    6.4608   -1.7640    0.0000 C   0  0  0  0  0  0  0  0  0  0  0  0
    7.9578   -1.8583    0.0000 C   0  0  0  0  0  0  0  0  0  0  0  0
    8.7880   -0.6090    0.0000 C   0  0  0  0  0  0  0  0  0  0  0  0
   10.2851   -0.7033    0.0000 C   0  0  0  0  0  0  0  0  0  0  0  0
   11.6287   -0.0365    0.0000 C   0  0  0  0  0  0  0  0  0  0  0  0
   11.5344   -1.5335    0.0000 C   0  0  0  0  0  0  0  0  0  0  0  0
    8.1212    0.7346    0.0000 C   0  0  0  0  0  0  0  0  0  0  0  0
    6.6242    0.8289    0.0000 C   0  0  0  0  0  0  0  0  0  0  0  0
    5.9573    2.1725    0.0000 F   0  0  0  0  0  0  0  0  0  0  0  0
    5.7940   -0.4204    0.0000 C   0  0  0  0  0  0  0  0  0  0  0  0
    4.2969   -0.3261    0.0000 C   0  0  0  0  0  0  0  0  0  0  0  0
    3.6301    1.0175    0.0000 O   0  0  0  0  0  0  0  0  0  0  0  0
    1.3029   -0.1375    0.0000 C   0  0  0  0  0  0  0  0  0  0  0  0
    2.1331    1.1118    0.0000 C   0  0  0  0  0  0  0  0  0  0  0  0
    1.4662    2.4555    0.0000 O   0  0  0  0  0  0  0  0  0  0  0  0
   -2.3580    1.3948    0.0000 C   0  0  0  0  0  0  0  0  0  0  0  0
   -3.4298    0.3454    0.0000 C   0  0  0  0  0  0  0  0  0  0  0  0
   -4.7591    1.0404    0.0000 C   0  0  0  0  0  0  0  0  0  0  0  0
   -6.1027    0.3736    0.0000 C   0  0  0  0  0  0  0  0  0  0  0  0
   -7.3520    1.2038    0.0000 C   0  0  0  0  0  0  0  0  0  0  0  0
   -8.6956    0.5369    0.0000 C   0  0  0  0  0  0  0  0  0  0  0  0
   -8.7899   -0.9601    0.0000 N   0  0  0  0  0  0  0  0  0  0  0  0
  -10.1336   -1.6269    0.0000 C   0  0  0  0  0  0  0  0  0  0  0  0
  -11.5552   -1.1484    0.0000 C   0  0  0  0  0  0  0  0  0  0  0  0
  -12.0337   -2.5700    0.0000 O   0  0  0  0  0  0  0  0  0  0  0  0
  -10.6121   -3.0486    0.0000 C   0  0  0  0  0  0  0  0  0  0  0  0
   -7.5406   -1.7903    0.0000 C   0  0  0  0  0  0  0  0  0  0  0  0
   -6.1970   -1.1235    0.0000 C   0  0  0  0  0  0  0  0  0  0  0  0
   -4.5088    2.5194    0.0000 N   0  0  0  0  0  0  0  0  0  0  0  0
   -3.0249    2.7384    0.0000 C   0  0  0  0  0  0  0  0  0  0  0  0
   -2.1947    3.9877    0.0000 N   0  0  0  0  0  0  0  0  0  0  0  0
  1  2  1  0
  2  3  2  0
  3  4  1  0
  4  5  1  0
  5  6  2  0
  6  7  1  0
  7  8  2  0
  8  9  1  0
  9 10  1  0
 10 11  1  0
 11 12  2  0
 12 13  1  0
 13 14  2  0
 14 15  1  0
 15 16  1  0
 16 17  1  0
 17 18  1  0
 15 19  2  0
 19 20  1  0
 20 21  1  0
 20 22  2  0
 22 23  1  0
 23 24  2  0
  9 25  2  0
 25 26  1  0
 26 27  1  0
  4 28  2  0
 28 29  1  0
 29 30  2  0
 30 31  1  0
 31 32  2  0
 32 33  1  0
 33 34  1  0
 34 35  1  0
 35 36  1  0
 36 37  1  0
 37 38  1  0
 34 39  1  0
 39 40  1  0
 30 41  1  0
 41 42  1  0
 42 43  2  0
 43  2  1  0
 25  5  1  0
 42 28  1  0
 23 10  1  0
 40 31  1  0
 22 13  1  0
 38 35  1  0
 18 16  1  0
M  END
>  <BrandName>  (101) 


>  <Applicants>  (101) 
('',)

>  <CHEMBL_ID>  (101) 
CHEMBL5077961

>  <Canonical_Smiles>  (101) 
Nc1nc(-c2cccc(-n3ccc4cc(C5CC5)cc(F)c4c3=O)c2CO)c2cc(C3=CCN(C4COC4)CC3)[nH]c2n1

>  <Chirality>  (101) 
Achiral Molecule

>  <First_Approval>  (101) 
nan

>  <Phase>  (101) 
2.0

>  <SC_Patent>  (101) 
nan

>  <Synonyms>  (101) 
MILREBRUTINIB

>  <Withdrawn>  (101) 
nan

>  <Indications>  (101) 
nan

>  <Type>  (101) 
nan

>  <targets_id>  (101) 
nan

>  <Inchi>  (101) 
InChI=1S/C33H31FN6O3/c34-26-13-21(18-4-5-18)12-20-8-11-40(32(42)29(20)26)28-3-1-2-23(25(28)15-41)30-24-14-27(36-31(24)38-33(35)37-30)19-6-9-39(10-7-19)22-16-43-17-22/h1-3,6,8,11-14,18,22,41H,4-5,7,9-10,15-17H2,(H3,35,36,37,38)

>  <stdInchikey>  (101) 
LJODJUIHONTDMR-UHFFFAOYSA-N

>  <csid>  (101) 
115006766

>  <Links>  (101) 
|http://www.chemspider.com/Chemical-Structure.115006766.html|https://www.ebi.ac.uk/chembldb/compound/inspect/CHEMBL5077961|https://pubchem.ncbi.nlm.nih.gov/compound/134558471|https://www.bindingdb.org/bind/chemsearch/marvin/MolStructure.jsp?monomerid=465748

>  <LinkName>  (101) 
|ChemSpider|ChEMBL|PubChem|BindingDB

>  <lig_pdb_ID>  (101) 


>  <pdb_IDs>  (101) 


>  <indicationDB>  (101) 


>  <uniprotId>  (101) 


>  <indicationG2P>  (101) 


>  <MW>  (101) 
578.2

>  <HBA>  (101) 
8

>  <HBD>  (101) 
3

>  <NRB>  (101) 
6

>  <TPSA>  (101) 
122.3

>  <LogP>  (101) 
4.5

>  <RoF>  (101) 
1

>  <Melting point>  (101) 
nan

>  <Targets>  (101) 
nan

>  <Kinase families>  (101) 


>  <FDA_approved>  (101) 


$$$$
Acalisib
     RDKit          2D

 30 34  0  0  0  0  0  0  0  0999 V2000
   -1.1075    1.7366    0.0000 C   0  0  0  0  0  0  0  0  0  0  0  0
   -0.7253    0.2861    0.0000 C   0  0  0  0  0  0  0  0  0  0  0  0
    0.7220   -0.1081    0.0000 C   0  0  0  0  0  0  0  0  0  0  0  0
    1.1042   -1.5586    0.0000 N   0  0  0  0  0  0  0  0  0  0  0  0
    2.5515   -1.9528    0.0000 C   0  0  0  0  0  0  0  0  0  0  0  0
    2.9337   -3.4033    0.0000 C   0  0  0  0  0  0  0  0  0  0  0  0
    4.3810   -3.7975    0.0000 C   0  0  0  0  0  0  0  0  0  0  0  0
    5.4460   -2.7413    0.0000 C   0  0  0  0  0  0  0  0  0  0  0  0
    5.0638   -1.2908    0.0000 C   0  0  0  0  0  0  0  0  0  0  0  0
    3.6165   -0.8965    0.0000 C   0  0  0  0  0  0  0  0  0  0  0  0
    3.2343    0.5539    0.0000 C   0  0  0  0  0  0  0  0  0  0  0  0
    4.2993    1.6102    0.0000 O   0  0  0  0  0  0  0  0  0  0  0  0
    1.7870    0.9482    0.0000 N   0  0  0  0  0  0  0  0  0  0  0  0
    1.4048    2.3986    0.0000 C   0  0  0  0  0  0  0  0  0  0  0  0
    2.4698    3.4549    0.0000 C   0  0  0  0  0  0  0  0  0  0  0  0
    2.0876    4.9054    0.0000 C   0  0  0  0  0  0  0  0  0  0  0  0
    0.6403    5.2996    0.0000 C   0  0  0  0  0  0  0  0  0  0  0  0
   -0.4247    4.2434    0.0000 C   0  0  0  0  0  0  0  0  0  0  0  0
   -0.0425    2.7929    0.0000 C   0  0  0  0  0  0  0  0  0  0  0  0
    6.8933   -3.1355    0.0000 F   0  0  0  0  0  0  0  0  0  0  0  0
   -1.7903   -0.7701    0.0000 N   0  0  0  0  0  0  0  0  0  0  0  0
   -3.2376   -0.3759    0.0000 C   0  0  0  0  0  0  0  0  0  0  0  0
   -4.3027   -1.4322    0.0000 C   0  0  0  0  0  0  0  0  0  0  0  0
   -5.7499   -1.0380    0.0000 C   0  0  0  0  0  0  0  0  0  0  0  0
   -6.5721   -2.2926    0.0000 N   0  0  0  0  0  0  0  0  0  0  0  0
   -5.6329   -3.4622    0.0000 C   0  0  0  0  0  0  0  0  0  0  0  0
   -4.2303   -2.9304    0.0000 N   0  0  0  0  0  0  0  0  0  0  0  0
   -6.1321    0.4125    0.0000 N   0  0  0  0  0  0  0  0  0  0  0  0
   -5.0671    1.4688    0.0000 C   0  0  0  0  0  0  0  0  0  0  0  0
   -3.6198    1.0746    0.0000 N   0  0  0  0  0  0  0  0  0  0  0  0
  2  1  1  1
  2  3  1  0
  3  4  2  0
  4  5  1  0
  5  6  2  0
  6  7  1  0
  7  8  2  0
  8  9  1  0
  9 10  2  0
 10 11  1  0
 11 12  2  0
 11 13  1  0
 13 14  1  0
 14 15  2  0
 15 16  1  0
 16 17  2  0
 17 18  1  0
 18 19  2  0
  8 20  1  0
  2 21  1  0
 21 22  1  0
 22 23  1  0
 23 24  2  0
 24 25  1  0
 25 26  2  0
 26 27  1  0
 24 28  1  0
 28 29  2  0
 29 30  1  0
 13  3  1  0
 10  5  1  0
 19 14  1  0
 30 22  2  0
 27 23  1  0
M  END
>  <BrandName>  (102) 


>  <Applicants>  (102) 
Gilead Sciences

>  <CHEMBL_ID>  (102) 
CHEMBL4303323

>  <Canonical_Smiles>  (102) 
C[C@@H](c1nc2ccc(cc2c(=O)n1c3ccccc3)F)Nc4c5c(nc[nH]5)ncn4

>  <Chirality>  (102) 
Single Stereoisomer

>  <First_Approval>  (102) 
nan

>  <Phase>  (102) 
2.0

>  <SC_Patent>  (102) 
nan

>  <Synonyms>  (102) 
ACALISIB | CAL-120 | CAL120 | GS-9820 | GS9820

>  <Withdrawn>  (102) 
nan

>  <Indications>  (102) 
nan

>  <Type>  (102) 
nan

>  <targets_id>  (102) 
P42336

>  <Inchi>  (102) 
InChI=1S/C21H16FN7O/c1-12(27-19-17-18(24-10-23-17)25-11-26-19)20-28-16-8-7-13(22)9-15(16)21(30)29(20)14-5-3-2-4-6-14/h2-12H,1H3,(H2,23,24,25,26,27)/t12-/m0/s1

>  <stdInchikey>  (102) 
DOCINCLJNAXZQF-LBPRGKRZSA-N

>  <csid>  (102) 
9793017

>  <Links>  (102) 
|http://www.chemspider.com/Chemical-Structure.9793017.html|https://www.ebi.ac.uk/chembldb/compound/inspect/CHEMBL4303323|https://pubchem.ncbi.nlm.nih.gov/compound/11618268|https://go.drugbank.com/drugs/DB15407|https://www.guidetopharmacology.org/GRAC/LigandDisplayForward?10096|https://zinc15.docking.org/substances/ZINC000035943170|https://precision.fda.gov/uniisearch/srs/unii/OVW60IDW1D

>  <LinkName>  (102) 
|ChemSpider|ChEMBL|PubChem|DrugBank|Guide to Pharmacology|ZINC|FDA SRS

>  <lig_pdb_ID>  (102) 


>  <pdb_IDs>  (102) 


>  <indicationDB>  (102) 


>  <uniprotId>  (102) 


>  <indicationG2P>  (102) 
None

>  <MW>  (102) 
401.1

>  <HBA>  (102) 
7

>  <HBD>  (102) 
2

>  <NRB>  (102) 
4

>  <TPSA>  (102) 
101.4

>  <LogP>  (102) 
3.4

>  <RoF>  (102) 
0

>  <Melting point>  (102) 
nan

>  <Targets>  (102) 
PIK3CA

>  <Kinase families>  (102) 
Atypical

>  <FDA_approved>  (102) 


$$$$
Pamapimod
     RDKit          2D

 29 31  0  0  0  0  0  0  0  0999 V2000
   -0.8153    2.9326    0.0000 C   0  0  0  0  0  0  0  0  0  0  0  0
   -0.8337    1.4327    0.0000 N   0  0  0  0  0  0  0  0  0  0  0  0
    0.4561    0.6669    0.0000 C   0  0  0  0  0  0  0  0  0  0  0  0
    0.4378   -0.8330    0.0000 C   0  0  0  0  0  0  0  0  0  0  0  0
   -0.8703   -1.5671    0.0000 C   0  0  0  0  0  0  0  0  0  0  0  0
   -2.1601   -0.8013    0.0000 C   0  0  0  0  0  0  0  0  0  0  0  0
   -2.1418    0.6986    0.0000 C   0  0  0  0  0  0  0  0  0  0  0  0
   -3.4315    1.4644    0.0000 O   0  0  0  0  0  0  0  0  0  0  0  0
   -3.4682   -1.5353    0.0000 O   0  0  0  0  0  0  0  0  0  0  0  0
   -4.7580   -0.7695    0.0000 C   0  0  0  0  0  0  0  0  0  0  0  0
   -4.7396    0.7304    0.0000 C   0  0  0  0  0  0  0  0  0  0  0  0
   -6.0294    1.4962    0.0000 C   0  0  0  0  0  0  0  0  0  0  0  0
   -7.3375    0.7621    0.0000 C   0  0  0  0  0  0  0  0  0  0  0  0
   -7.3558   -0.7378    0.0000 C   0  0  0  0  0  0  0  0  0  0  0  0
   -6.0661   -1.5036    0.0000 C   0  0  0  0  0  0  0  0  0  0  0  0
   -6.0844   -3.0035    0.0000 F   0  0  0  0  0  0  0  0  0  0  0  0
   -8.6273    1.5279    0.0000 F   0  0  0  0  0  0  0  0  0  0  0  0
    1.7276   -1.5988    0.0000 C   0  0  0  0  0  0  0  0  0  0  0  0
    3.0357   -0.8647    0.0000 N   0  0  0  0  0  0  0  0  0  0  0  0
    3.0540    0.6352    0.0000 C   0  0  0  0  0  0  0  0  0  0  0  0
    1.7642    1.4010    0.0000 N   0  0  0  0  0  0  0  0  0  0  0  0
    4.3621    1.3692    0.0000 N   0  0  0  0  0  0  0  0  0  0  0  0
    5.6519    0.6034    0.0000 C   0  0  0  0  0  0  0  0  0  0  0  0
    6.9600    1.3375    0.0000 C   0  0  0  0  0  0  0  0  0  0  0  0
    8.2498    0.5717    0.0000 C   0  0  0  0  0  0  0  0  0  0  0  0
    9.5579    1.3058    0.0000 O   0  0  0  0  0  0  0  0  0  0  0  0
    5.6336   -0.8965    0.0000 C   0  0  0  0  0  0  0  0  0  0  0  0
    6.9233   -1.6623    0.0000 C   0  0  0  0  0  0  0  0  0  0  0  0
    6.9050   -3.1622    0.0000 O   0  0  0  0  0  0  0  0  0  0  0  0
  1  2  1  0
  2  3  1  0
  3  4  2  0
  4  5  1  0
  5  6  2  0
  6  7  1  0
  7  8  2  0
  6  9  1  0
  9 10  1  0
 10 11  2  0
 11 12  1  0
 12 13  2  0
 13 14  1  0
 14 15  2  0
 15 16  1  0
 13 17  1  0
  4 18  1  0
 18 19  2  0
 19 20  1  0
 20 21  2  0
 20 22  1  0
 22 23  1  0
 23 24  1  0
 24 25  1  0
 25 26  1  0
 23 27  1  0
 27 28  1  0
 28 29  1  0
  7  2  1  0
 21  3  1  0
 15 10  1  0
M  END
>  <BrandName>  (103) 


>  <Applicants>  (103) 
Hoffmann-La Roche

>  <CHEMBL_ID>  (103) 
CHEMBL1090089

>  <Canonical_Smiles>  (103) 
Cn1c2c(cc(c1=O)Oc3ccc(cc3F)F)cnc(n2)NC(CCO)CCO

>  <Chirality>  (103) 
Achiral Molecule

>  <First_Approval>  (103) 
nan

>  <Phase>  (103) 
2.0

>  <SC_Patent>  (103) 
nan

>  <Synonyms>  (103) 
PAMAPIMOD | R-1503 | R1503 | RO 4402257 | RO-4402257

>  <Withdrawn>  (103) 
nan

>  <Indications>  (103) 
nan

>  <Type>  (103) 
1

>  <targets_id>  (103) 
Q16539|Q15759

>  <Inchi>  (103) 
InChI=1S/C19H20F2N4O4/c1-25-17-11(10-22-19(24-17)23-13(4-6-26)5-7-27)8-16(18(25)28)29-15-3-2-12(20)9-14(15)21/h2-3,8-10,13,26-27H,4-7H2,1H3,(H,22,23,24)

>  <stdInchikey>  (103) 
JYYLVUFNAHSSFE-UHFFFAOYSA-N

>  <csid>  (103) 
17347490

>  <Links>  (103) 
|http://www.chemspider.com/Chemical-Structure.17347490.html|https://www.ebi.ac.uk/chembldb/compound/inspect/CHEMBL1090089|https://pubchem.ncbi.nlm.nih.gov/compound/16220188|https://www.rcsb.org/ligand/FLW|https://www.ebi.ac.uk/pdbe-srv/pdbechem/chemicalCompound/show/FLW|https://www.guidetopharmacology.org/GRAC/LigandDisplayForward?9915|https://zinc15.docking.org/substances/ZINC000030691792|https://precision.fda.gov/uniisearch/srs/unii/8S2C9V11K4|https://www.bindingdb.org/bind/chemsearch/marvin/MolStructure.jsp?monomerid=50314070

>  <LinkName>  (103) 
|ChemSpider|ChEMBL|PubChem|RCSB|PDBe|Guide to Pharmacology|ZINC|FDA SRS|BindingDB

>  <lig_pdb_ID>  (103) 
FLW

>  <pdb_IDs>  (103) 
3flw

>  <indicationDB>  (103) 


>  <uniprotId>  (103) 


>  <indicationG2P>  (103) 
None

>  <MW>  (103) 
406.1

>  <HBA>  (103) 
8

>  <HBD>  (103) 
3

>  <NRB>  (103) 
8

>  <TPSA>  (103) 
109.5

>  <LogP>  (103) 
1.9

>  <RoF>  (103) 
0

>  <Melting point>  (103) 
nan

>  <Targets>  (103) 
MAPK14; MAPK11

>  <Kinase families>  (103) 
CMGC

>  <FDA_approved>  (103) 


$$$$
Riviciclib
     RDKit          2D

 28 31  0  0  0  0  0  0  0  0999 V2000
   -4.7229   -3.7399    0.0000 C   0  0  0  0  0  0  0  0  0  0  0  0
   -3.5267   -2.8349    0.0000 N   0  0  0  0  0  0  0  0  0  0  0  0
   -2.0914   -3.2706    0.0000 C   0  0  0  0  0  0  0  0  0  0  0  0
   -1.2334   -2.0402    0.0000 C   0  0  0  0  0  0  0  0  0  0  0  0
   -2.1385   -0.8440    0.0000 C   0  0  0  0  0  0  0  0  0  0  0  0
   -3.5558   -1.3352    0.0000 C   0  0  0  0  0  0  0  0  0  0  0  0
   -4.7862   -0.4772    0.0000 C   0  0  0  0  0  0  0  0  0  0  0  0
   -6.1444   -1.1138    0.0000 O   0  0  0  0  0  0  0  0  0  0  0  0
   -1.7027    0.5913    0.0000 C   0  0  0  0  0  0  0  0  0  0  0  0
   -2.7279    1.6863    0.0000 C   0  0  0  0  0  0  0  0  0  0  0  0
   -2.2921    3.1216    0.0000 C   0  0  0  0  0  0  0  0  0  0  0  0
   -0.8312    3.4619    0.0000 C   0  0  0  0  0  0  0  0  0  0  0  0
    0.1939    2.3669    0.0000 C   0  0  0  0  0  0  0  0  0  0  0  0
   -0.2418    0.9316    0.0000 C   0  0  0  0  0  0  0  0  0  0  0  0
    0.7833   -0.1635    0.0000 O   0  0  0  0  0  0  0  0  0  0  0  0
    2.2442    0.1768    0.0000 C   0  0  0  0  0  0  0  0  0  0  0  0
    2.6799    1.6121    0.0000 C   0  0  0  0  0  0  0  0  0  0  0  0
    1.6548    2.7072    0.0000 C   0  0  0  0  0  0  0  0  0  0  0  0
    2.0906    4.1425    0.0000 O   0  0  0  0  0  0  0  0  0  0  0  0
    3.2693   -0.9182    0.0000 C   0  0  0  0  0  0  0  0  0  0  0  0
    2.8336   -2.3535    0.0000 C   0  0  0  0  0  0  0  0  0  0  0  0
    3.8587   -3.4486    0.0000 C   0  0  0  0  0  0  0  0  0  0  0  0
    5.3196   -3.1083    0.0000 C   0  0  0  0  0  0  0  0  0  0  0  0
    5.7554   -1.6730    0.0000 C   0  0  0  0  0  0  0  0  0  0  0  0
    4.7302   -0.5779    0.0000 C   0  0  0  0  0  0  0  0  0  0  0  0
    5.1660    0.8574    0.0000 Cl  0  0  0  0  0  0  0  0  0  0  0  0
   -0.3955    4.8972    0.0000 O   0  0  0  0  0  0  0  0  0  0  0  0
   -4.1888    1.3460    0.0000 O   0  0  0  0  0  0  0  0  0  0  0  0
  1  2  1  0
  2  3  1  0
  3  4  1  0
  4  5  1  0
  5  6  1  0
  6  7  1  1
  7  8  1  0
  5  9  1  6
  9 10  2  0
 10 11  1  0
 11 12  2  0
 12 13  1  0
 13 14  2  0
 14 15  1  0
 15 16  1  0
 16 17  2  0
 17 18  1  0
 18 19  2  0
 16 20  1  0
 20 21  2  0
 21 22  1  0
 22 23  2  0
 23 24  1  0
 24 25  2  0
 25 26  1  0
 12 27  1  0
 10 28  1  0
  6  2  1  0
 14  9  1  0
 18 13  1  0
 25 20  1  0
M  END
>  <BrandName>  (104) 


>  <Applicants>  (104) 
Piramal Enterprises

>  <CHEMBL_ID>  (104) 
CHEMBL3545283

>  <Canonical_Smiles>  (104) 
CN1CC[C@H]([C@@H]1CO)c2c(cc(c3c2oc(cc3=O)c4ccccc4Cl)O)O

>  <Chirality>  (104) 
Racemic Mixture

>  <First_Approval>  (104) 
nan

>  <Phase>  (104) 
2.0

>  <SC_Patent>  (104) 
nan

>  <Synonyms>  (104) 


>  <Withdrawn>  (104) 
nan

>  <Indications>  (104) 
nan

>  <Type>  (104) 
nan

>  <targets_id>  (104) 
P06493|P11802|P50750

>  <Inchi>  (104) 
InChI=1S/C21H20ClNO5/c1-23-7-6-12(14(23)10-24)19-15(25)8-16(26)20-17(27)9-18(28-21(19)20)11-4-2-3-5-13(11)22/h2-5,8-9,12,14,24-26H,6-7,10H2,1H3

>  <stdInchikey>  (104) 
QLUYMIVVAYRECT-OCCSQVGLSA-N

>  <csid>  (104) 
29165868

>  <Links>  (104) 
|http://www.chemspider.com/Chemical-Structure.29165868.html|https://www.ebi.ac.uk/chembldb/compound/inspect/CHEMBL3969723|https://pubchem.ncbi.nlm.nih.gov/compound/23643976|https://www.guidetopharmacology.org/GRAC/LigandDisplayForward?7934|https://zinc15.docking.org/substances/ZINC000003937395|https://www.bindingdb.org/bind/chemsearch/marvin/MolStructure.jsp?monomerid=50193086

>  <LinkName>  (104) 
|ChemSpider|ChEMBL|PubChem|Guide to Pharmacology|ZINC|BindingDB

>  <lig_pdb_ID>  (104) 


>  <pdb_IDs>  (104) 


>  <indicationDB>  (104) 


>  <uniprotId>  (104) 


>  <indicationG2P>  (104) 
None

>  <MW>  (104) 
401.1

>  <HBA>  (104) 
6

>  <HBD>  (104) 
3

>  <NRB>  (104) 
3

>  <TPSA>  (104) 
94.1

>  <LogP>  (104) 
3.3

>  <RoF>  (104) 
0

>  <Melting point>  (104) 
nan

>  <Targets>  (104) 
CDK1; CDK4; CDK9

>  <Kinase families>  (104) 
CMGC

>  <FDA_approved>  (104) 


$$$$
Larotinib
     RDKit          2D

 34 38  0  0  0  0  0  0  0  0999 V2000
   -1.5877   -4.9941    0.0000 C   0  0  0  0  0  0  0  0  0  0  0  0
   -0.1113   -5.2594    0.0000 O   0  0  0  0  0  0  0  0  0  0  0  0
    0.8566   -4.1135    0.0000 C   0  0  0  0  0  0  0  0  0  0  0  0
    2.3330   -4.3789    0.0000 C   0  0  0  0  0  0  0  0  0  0  0  0
    3.3009   -3.2330    0.0000 C   0  0  0  0  0  0  0  0  0  0  0  0
    4.7773   -3.4983    0.0000 N   0  0  0  0  0  0  0  0  0  0  0  0
    5.7453   -2.3525    0.0000 C   0  0  0  0  0  0  0  0  0  0  0  0
    5.2369   -0.9412    0.0000 N   0  0  0  0  0  0  0  0  0  0  0  0
    3.7605   -0.6759    0.0000 C   0  0  0  0  0  0  0  0  0  0  0  0
    3.2522    0.7353    0.0000 N   0  0  0  0  0  0  0  0  0  0  0  0
    4.2201    1.8812    0.0000 C   0  0  0  0  0  0  0  0  0  0  0  0
    5.6965    1.6159    0.0000 C   0  0  0  0  0  0  0  0  0  0  0  0
    6.6645    2.7617    0.0000 C   0  0  0  0  0  0  0  0  0  0  0  0
    8.1408    2.4964    0.0000 Cl  0  0  0  0  0  0  0  0  0  0  0  0
    6.1561    4.1730    0.0000 C   0  0  0  0  0  0  0  0  0  0  0  0
    7.1240    5.3188    0.0000 F   0  0  0  0  0  0  0  0  0  0  0  0
    4.6797    4.4383    0.0000 C   0  0  0  0  0  0  0  0  0  0  0  0
    3.7118    3.2924    0.0000 C   0  0  0  0  0  0  0  0  0  0  0  0
    2.7926   -1.8218    0.0000 C   0  0  0  0  0  0  0  0  0  0  0  0
    1.3162   -1.5564    0.0000 C   0  0  0  0  0  0  0  0  0  0  0  0
    0.3483   -2.7023    0.0000 C   0  0  0  0  0  0  0  0  0  0  0  0
   -1.1281   -2.4370    0.0000 O   0  0  0  0  0  0  0  0  0  0  0  0
   -1.6365   -1.0257    0.0000 C   0  0  0  0  0  0  0  0  0  0  0  0
   -3.1128   -0.7604    0.0000 C   0  0  0  0  0  0  0  0  0  0  0  0
   -3.6212    0.6508    0.0000 C   0  0  0  0  0  0  0  0  0  0  0  0
   -5.0975    0.9162    0.0000 N   0  0  0  0  0  0  0  0  0  0  0  0
   -5.7506    2.2666    0.0000 C   0  0  0  0  0  0  0  0  0  0  0  0
   -7.2367    2.0627    0.0000 C   0  0  0  0  0  0  0  0  0  0  0  0
   -8.3826    3.0307    0.0000 O   0  0  0  0  0  0  0  0  0  0  0  0
   -9.7938    2.5223    0.0000 C   0  0  0  0  0  0  0  0  0  0  0  0
  -10.0592    1.0460    0.0000 C   0  0  0  0  0  0  0  0  0  0  0  0
   -8.9133    0.0780    0.0000 O   0  0  0  0  0  0  0  0  0  0  0  0
   -7.5021    0.5864    0.0000 C   0  0  0  0  0  0  0  0  0  0  0  0
   -6.1800   -0.1222    0.0000 C   0  0  0  0  0  0  0  0  0  0  0  0
  1  2  1  0
  2  3  1  0
  3  4  2  0
  4  5  1  0
  5  6  2  0
  6  7  1  0
  7  8  2  0
  8  9  1  0
  9 10  1  0
 10 11  1  0
 11 12  2  0
 12 13  1  0
 13 14  1  0
 13 15  2  0
 15 16  1  0
 15 17  1  0
 17 18  2  0
  9 19  2  0
 19 20  1  0
 20 21  2  0
 21 22  1  0
 22 23  1  0
 23 24  1  0
 24 25  1  0
 25 26  1  0
 26 27  1  0
 28 27  1  1
 28 29  1  0
 29 30  1  0
 30 31  1  0
 31 32  1  0
 32 33  1  0
 33 34  1  1
 21  3  1  0
 34 26  1  0
 19  5  1  0
 33 28  1  0
 18 11  1  0
M  END
>  <BrandName>  (105) 


>  <Applicants>  (105) 
HEC Pharm

>  <CHEMBL_ID>  (105) 
nan

>  <Canonical_Smiles>  (105) 
COC1=CC2N=CN=C(NC3=CC(Cl)=C(F)C=C3)C=2C=C1OCCCN1C[C@@H]2OCCO[C@@H]2C1

>  <Chirality>  (105) 
nan

>  <First_Approval>  (105) 
nan

>  <Phase>  (105) 
2.0

>  <SC_Patent>  (105) 
nan

>  <Synonyms>  (105) 


>  <Withdrawn>  (105) 
{''}

>  <Indications>  (105) 
nan

>  <Type>  (105) 
nan

>  <targets_id>  (105) 
nan

>  <Inchi>  (105) 
InChI=1S/C24H26ClFN4O4/c1-31-20-11-19-16(24(28-14-27-19)29-15-3-4-18(26)17(25)9-15)10-21(20)32-6-2-5-30-12-22-23(13-30)34-8-7-33-22/h3-4,9-11,14,22-23H,2,5-8,12-13H2,1H3,(H,27,28,29)/t22-,23+

>  <stdInchikey>  (105) 
UFUKZMIXTOMMLU-ZRZAMGCNSA-N

>  <csid>  (105) 
128922025

>  <Links>  (105) 
|http://www.chemspider.com/Chemical-Structure.128922025.html|https://pubchem.ncbi.nlm.nih.gov/compound/89584422

>  <LinkName>  (105) 
|ChemSpider|PubChem

>  <lig_pdb_ID>  (105) 


>  <pdb_IDs>  (105) 


>  <indicationDB>  (105) 


>  <uniprotId>  (105) 


>  <indicationG2P>  (105) 


>  <MW>  (105) 
488.2

>  <HBA>  (105) 
8

>  <HBD>  (105) 
1

>  <NRB>  (105) 
8

>  <TPSA>  (105) 
78.0

>  <LogP>  (105) 
4.0

>  <RoF>  (105) 
0

>  <Melting point>  (105) 
nan

>  <Targets>  (105) 
nan

>  <Kinase families>  (105) 


>  <FDA_approved>  (105) 


$$$$
Ilorasertib
     RDKit          2D

 35 39  0  0  0  0  0  0  0  0999 V2000
    8.9384   -2.4232    0.0000 C   0  0  0  0  0  0  0  0  0  0  0  0
    7.8249   -1.4182    0.0000 C   0  0  0  0  0  0  0  0  0  0  0  0
    8.1385    0.0487    0.0000 C   0  0  0  0  0  0  0  0  0  0  0  0
    9.5657    0.5105    0.0000 C   0  0  0  0  0  0  0  0  0  0  0  0
   10.6792   -0.4945    0.0000 C   0  0  0  0  0  0  0  0  0  0  0  0
   10.3656   -1.9614    0.0000 C   0  0  0  0  0  0  0  0  0  0  0  0
   12.1063   -0.0327    0.0000 F   0  0  0  0  0  0  0  0  0  0  0  0
    7.0250    1.0537    0.0000 N   0  0  0  0  0  0  0  0  0  0  0  0
    5.5979    0.5919    0.0000 C   0  0  0  0  0  0  0  0  0  0  0  0
    5.2843   -0.8750    0.0000 O   0  0  0  0  0  0  0  0  0  0  0  0
    4.4844    1.5969    0.0000 N   0  0  0  0  0  0  0  0  0  0  0  0
    3.0572    1.1351    0.0000 C   0  0  0  0  0  0  0  0  0  0  0  0
    1.9437    2.1401    0.0000 C   0  0  0  0  0  0  0  0  0  0  0  0
    0.5166    1.6783    0.0000 C   0  0  0  0  0  0  0  0  0  0  0  0
    0.2030    0.2114    0.0000 C   0  0  0  0  0  0  0  0  0  0  0  0
    1.3165   -0.7936    0.0000 C   0  0  0  0  0  0  0  0  0  0  0  0
    2.7436   -0.3318    0.0000 C   0  0  0  0  0  0  0  0  0  0  0  0
   -1.2242   -0.2504    0.0000 C   0  0  0  0  0  0  0  0  0  0  0  0
   -1.6894   -1.6764    0.0000 C   0  0  0  0  0  0  0  0  0  0  0  0
   -3.1894   -1.6746    0.0000 S   0  0  0  0  0  0  0  0  0  0  0  0
   -3.6512   -0.2475    0.0000 C   0  0  0  0  0  0  0  0  0  0  0  0
   -2.4366    0.6327    0.0000 C   0  0  0  0  0  0  0  0  0  0  0  0
   -2.5917    2.1247    0.0000 C   0  0  0  0  0  0  0  0  0  0  0  0
   -3.9613    2.7364    0.0000 N   0  0  0  0  0  0  0  0  0  0  0  0
   -5.1758    1.8562    0.0000 C   0  0  0  0  0  0  0  0  0  0  0  0
   -5.0208    0.3642    0.0000 C   0  0  0  0  0  0  0  0  0  0  0  0
   -6.2354   -0.5160    0.0000 C   0  0  0  0  0  0  0  0  0  0  0  0
   -6.2372   -2.0160    0.0000 C   0  0  0  0  0  0  0  0  0  0  0  0
   -7.6643   -2.4778    0.0000 N   0  0  0  0  0  0  0  0  0  0  0  0
   -8.5445   -1.2632    0.0000 N   0  0  0  0  0  0  0  0  0  0  0  0
   -7.6614   -0.0508    0.0000 C   0  0  0  0  0  0  0  0  0  0  0  0
  -10.0445   -1.2615    0.0000 C   0  0  0  0  0  0  0  0  0  0  0  0
  -10.7930    0.0385    0.0000 C   0  0  0  0  0  0  0  0  0  0  0  0
  -12.2930    0.0403    0.0000 O   0  0  0  0  0  0  0  0  0  0  0  0
   -1.3771    3.0049    0.0000 N   0  0  0  0  0  0  0  0  0  0  0  0
  1  2  2  0
  2  3  1  0
  3  4  2  0
  4  5  1  0
  5  6  2  0
  5  7  1  0
  3  8  1  0
  8  9  1  0
  9 10  2  0
  9 11  1  0
 11 12  1  0
 12 13  2  0
 13 14  1  0
 14 15  2  0
 15 16  1  0
 16 17  2  0
 15 18  1  0
 18 19  2  0
 19 20  1  0
 20 21  1  0
 21 22  2  0
 22 23  1  0
 23 24  2  0
 24 25  1  0
 25 26  2  0
 26 27  1  0
 27 28  1  0
 28 29  2  0
 29 30  1  0
 30 31  1  0
 30 32  1  0
 32 33  1  0
 33 34  1  0
 23 35  1  0
  6  1  1  0
 17 12  1  0
 22 18  1  0
 26 21  1  0
 31 27  2  0
M  END
>  <BrandName>  (106) 
ABT-348, A-968660;Abt-348, a-968660

>  <Applicants>  (106) 
Abbott Laboratories

>  <CHEMBL_ID>  (106) 
CHEMBL1980297

>  <Canonical_Smiles>  (106) 
c1cc(cc(c1)F)NC(=O)Nc2ccc(cc2)c3csc4c3c(ncc4c5cnn(c5)CCO)N

>  <Chirality>  (106) 
Achiral Molecule

>  <First_Approval>  (106) 
nan

>  <Phase>  (106) 
2.0

>  <SC_Patent>  (106) 
nan

>  <Synonyms>  (106) 
A-968660 | A-968660.0 | ABBOTT-968660 | ABT-348 | ABT-348, A-968660 | ILORASERTIB

>  <Withdrawn>  (106) 
{''}

>  <Indications>  (106) 
nan

>  <Type>  (106) 
nan

>  <targets_id>  (106) 
O14965|Q96GD4|Q9UQB9|P17948|P16234|P09619

>  <Inchi>  (106) 
InChI=1S/C25H21FN6O2S/c26-17-2-1-3-19(10-17)31-25(34)30-18-6-4-15(5-7-18)21-14-35-23-20(12-28-24(27)22(21)23)16-11-29-32(13-16)8-9-33/h1-7,10-14,33H,8-9H2,(H2,27,28)(H2,30,31,34)

>  <stdInchikey>  (106) 
WPHKIQPVPYJNAX-UHFFFAOYSA-N

>  <csid>  (106) 
24809095

>  <Links>  (106) 
|http://www.chemspider.com/Chemical-Structure.24809095.html|https://www.ebi.ac.uk/chembldb/compound/inspect/CHEMBL1980297|https://pubchem.ncbi.nlm.nih.gov/compound/46207586|https://go.drugbank.com/drugs/DB11694|https://www.guidetopharmacology.org/GRAC/LigandDisplayForward?9914|https://zinc15.docking.org/substances/ZINC000063298074|https://precision.fda.gov/uniisearch/srs/unii/6L5D03D975|https://www.bindingdb.org/bind/chemsearch/marvin/MolStructure.jsp?monomerid=50381716

>  <LinkName>  (106) 
|ChemSpider|ChEMBL|PubChem|DrugBank|Guide to Pharmacology|ZINC|FDA SRS|BindingDB

>  <lig_pdb_ID>  (106) 


>  <pdb_IDs>  (106) 


>  <indicationDB>  (106) 


>  <uniprotId>  (106) 


>  <indicationG2P>  (106) 
None

>  <MW>  (106) 
488.1

>  <HBA>  (106) 
7

>  <HBD>  (106) 
4

>  <NRB>  (106) 
6

>  <TPSA>  (106) 
118.1

>  <LogP>  (106) 
5.2

>  <RoF>  (106) 
1

>  <Melting point>  (106) 
nan

>  <Targets>  (106) 
AURKA; AURKB; AURKC; FLT1; PDGFRA; PDGFRB

>  <Kinase families>  (106) 
Other<br>Tyr

>  <FDA_approved>  (106) 


$$$$
Sotrastaurin
     RDKit          2D

 33 38  0  0  0  0  0  0  0  0999 V2000
   -0.4308   -7.0995    0.0000 C   0  0  0  0  0  0  0  0  0  0  0  0
    0.1205   -5.7045    0.0000 N   0  0  0  0  0  0  0  0  0  0  0  0
   -0.8119   -4.5295    0.0000 C   0  0  0  0  0  0  0  0  0  0  0  0
   -0.2606   -3.1345    0.0000 C   0  0  0  0  0  0  0  0  0  0  0  0
    1.2232   -2.9145    0.0000 N   0  0  0  0  0  0  0  0  0  0  0  0
    2.1556   -4.0895    0.0000 C   0  0  0  0  0  0  0  0  0  0  0  0
    1.6043   -5.4845    0.0000 C   0  0  0  0  0  0  0  0  0  0  0  0
    1.7746   -1.5195    0.0000 C   0  0  0  0  0  0  0  0  0  0  0  0
    3.2583   -1.2995    0.0000 N   0  0  0  0  0  0  0  0  0  0  0  0
    3.8097    0.0955    0.0000 C   0  0  0  0  0  0  0  0  0  0  0  0
    5.2935    0.3155    0.0000 C   0  0  0  0  0  0  0  0  0  0  0  0
    5.8448    1.7105    0.0000 C   0  0  0  0  0  0  0  0  0  0  0  0
    4.9124    2.8855    0.0000 C   0  0  0  0  0  0  0  0  0  0  0  0
    3.4286    2.6655    0.0000 C   0  0  0  0  0  0  0  0  0  0  0  0
    2.8773    1.2705    0.0000 C   0  0  0  0  0  0  0  0  0  0  0  0
    1.3935    1.0505    0.0000 C   0  0  0  0  0  0  0  0  0  0  0  0
    0.8421   -0.3445    0.0000 N   0  0  0  0  0  0  0  0  0  0  0  0
    0.4611    2.2255    0.0000 C   0  0  0  0  0  0  0  0  0  0  0  0
   -1.0376    2.1618    0.0000 C   0  0  0  0  0  0  0  0  0  0  0  0
   -1.5613    3.5674    0.0000 C   0  0  0  0  0  0  0  0  0  0  0  0
   -3.0063    3.9699    0.0000 O   0  0  0  0  0  0  0  0  0  0  0  0
   -0.3863    4.4998    0.0000 N   0  0  0  0  0  0  0  0  0  0  0  0
    0.8636    3.6704    0.0000 C   0  0  0  0  0  0  0  0  0  0  0  0
    2.2692    4.1941    0.0000 O   0  0  0  0  0  0  0  0  0  0  0  0
   -1.8669    0.9119    0.0000 C   0  0  0  0  0  0  0  0  0  0  0  0
   -1.3432   -0.4937    0.0000 C   0  0  0  0  0  0  0  0  0  0  0  0
   -2.5182   -1.4262    0.0000 N   0  0  0  0  0  0  0  0  0  0  0  0
   -3.7681   -0.5968    0.0000 C   0  0  0  0  0  0  0  0  0  0  0  0
   -3.3656    0.8482    0.0000 C   0  0  0  0  0  0  0  0  0  0  0  0
   -4.4157    1.9192    0.0000 C   0  0  0  0  0  0  0  0  0  0  0  0
   -5.8684    1.5453    0.0000 C   0  0  0  0  0  0  0  0  0  0  0  0
   -6.2709    0.1004    0.0000 C   0  0  0  0  0  0  0  0  0  0  0  0
   -5.2207   -0.9707    0.0000 C   0  0  0  0  0  0  0  0  0  0  0  0
  1  2  1  0
  2  3  1  0
  3  4  1  0
  4  5  1  0
  5  6  1  0
  6  7  1  0
  5  8  1  0
  8  9  2  0
  9 10  1  0
 10 11  2  0
 11 12  1  0
 12 13  2  0
 13 14  1  0
 14 15  2  0
 15 16  1  0
 16 17  2  0
 16 18  1  0
 18 19  2  0
 19 20  1  0
 20 21  2  0
 20 22  1  0
 22 23  1  0
 23 24  2  0
 19 25  1  0
 25 26  2  0
 26 27  1  0
 27 28  1  0
 28 29  2  0
 29 30  1  0
 30 31  2  0
 31 32  1  0
 32 33  2  0
  7  2  1  0
 17  8  1  0
 15 10  1  0
 23 18  1  0
 29 25  1  0
 33 28  1  0
M  END
>  <BrandName>  (107) 


>  <Applicants>  (107) 
Novartis

>  <CHEMBL_ID>  (107) 
CHEMBL565612

>  <Canonical_Smiles>  (107) 
CN1CCN(CC1)c2nc3ccccc3c(n2)C4=C(C(=O)NC4=O)c5c[nH]c6c5cccc6

>  <Chirality>  (107) 
Achiral Molecule

>  <First_Approval>  (107) 
nan

>  <Phase>  (107) 
2.0

>  <SC_Patent>  (107) 
nan

>  <Synonyms>  (107) 
AEB-071 | AEB071 | NVP-AEB071 | SOTRASTAURIN | SOTRASTAURINA | SOTRASTAURINE

>  <Withdrawn>  (107) 
nan

>  <Indications>  (107) 
nan

>  <Type>  (107) 
nan

>  <targets_id>  (107) 
nan

>  <Inchi>  (107) 
InChI=1S/C25H22N6O2/c1-30-10-12-31(13-11-30)25-27-19-9-5-3-7-16(19)22(28-25)21-20(23(32)29-24(21)33)17-14-26-18-8-4-2-6-15(17)18/h2-9,14,26H,10-13H2,1H3,(H,29,32,33)

>  <stdInchikey>  (107) 
OAVGBZOFDPFGPJ-UHFFFAOYSA-N

>  <csid>  (107) 
8472351

>  <Links>  (107) 
|http://www.chemspider.com/Chemical-Structure.8472351.html|https://www.ebi.ac.uk/chembldb/compound/inspect/CHEMBL565612|https://pubchem.ncbi.nlm.nih.gov/compound/10296883|https://go.drugbank.com/drugs/DB12369|https://www.rcsb.org/ligand/LW4|https://www.ebi.ac.uk/pdbe-srv/pdbechem/chemicalCompound/show/LW4|https://www.guidetopharmacology.org/GRAC/LigandDisplayForward?7946|https://zinc15.docking.org/substances/ZINC000003973984|https://precision.fda.gov/uniisearch/srs/unii/7I279E1NZ8|https://www.bindingdb.org/bind/chemsearch/marvin/MolStructure.jsp?monomerid=33971

>  <LinkName>  (107) 
|ChemSpider|ChEMBL|PubChem|DrugBank|RCSB|PDBe|Guide to Pharmacology|ZINC|FDA SRS|BindingDB

>  <lig_pdb_ID>  (107) 
LW4

>  <pdb_IDs>  (107) 
3iw4

>  <indicationDB>  (107) 


>  <uniprotId>  (107) 


>  <indicationG2P>  (107) 
None

>  <MW>  (107) 
438.2

>  <HBA>  (107) 
6

>  <HBD>  (107) 
2

>  <NRB>  (107) 
3

>  <TPSA>  (107) 
94.2

>  <LogP>  (107) 
2.4

>  <RoF>  (107) 
0

>  <Melting point>  (107) 
nan

>  <Targets>  (107) 
nan

>  <Kinase families>  (107) 


>  <FDA_approved>  (107) 


$$$$
Monzosertib
     RDKit          2D

 33 36  0  0  0  0  0  0  0  0999 V2000
    4.2202    7.3195    0.0000 C   0  0  0  0  0  0  0  0  0  0  0  0
    2.9193    6.5727    0.0000 C   0  0  0  0  0  0  0  0  0  0  0  0
    2.9156    5.0727    0.0000 O   0  0  0  0  0  0  0  0  0  0  0  0
    1.6147    4.3259    0.0000 C   0  0  0  0  0  0  0  0  0  0  0  0
    0.3176    5.0791    0.0000 O   0  0  0  0  0  0  0  0  0  0  0  0
    1.6110    2.8259    0.0000 C   0  0  0  0  0  0  0  0  0  0  0  0
    0.3953    1.9472    0.0000 C   0  0  0  0  0  0  0  0  0  0  0  0
   -1.0301    2.4143    0.0000 N   0  0  0  0  0  0  0  0  0  0  0  0
   -2.1473    1.4134    0.0000 N   0  0  0  0  0  0  0  0  0  0  0  0
   -3.5728    1.8804    0.0000 C   0  0  0  0  0  0  0  0  0  0  0  0
   -4.6900    0.8795    0.0000 C   0  0  0  0  0  0  0  0  0  0  0  0
   -4.3817   -0.5885    0.0000 N   0  0  0  0  0  0  0  0  0  0  0  0
   -5.4989   -1.5894    0.0000 C   0  0  0  0  0  0  0  0  0  0  0  0
   -6.9244   -1.1224    0.0000 C   0  0  0  0  0  0  0  0  0  0  0  0
   -8.3498   -0.6553    0.0000 F   0  0  0  0  0  0  0  0  0  0  0  0
   -7.3914   -2.5478    0.0000 F   0  0  0  0  0  0  0  0  0  0  0  0
   -6.4573    0.3031    0.0000 F   0  0  0  0  0  0  0  0  0  0  0  0
   -2.9563   -1.0555    0.0000 C   0  0  0  0  0  0  0  0  0  0  0  0
   -1.8391   -0.0546    0.0000 C   0  0  0  0  0  0  0  0  0  0  0  0
    0.8553    0.5195    0.0000 O   0  0  0  0  0  0  0  0  0  0  0  0
    2.3553    0.5158    0.0000 C   0  0  0  0  0  0  0  0  0  0  0  0
    3.2340   -0.6999    0.0000 C   0  0  0  0  0  0  0  0  0  0  0  0
    2.6205   -2.0687    0.0000 C   0  0  0  0  0  0  0  0  0  0  0  0
    1.1525   -2.3769    0.0000 C   0  0  0  0  0  0  0  0  0  0  0  0
    0.9920   -3.8683    0.0000 N   0  0  0  0  0  0  0  0  0  0  0  0
    2.3608   -4.4818    0.0000 C   0  0  0  0  0  0  0  0  0  0  0  0
    2.8208   -5.9096    0.0000 N   0  0  0  0  0  0  0  0  0  0  0  0
    4.2872   -6.2251    0.0000 C   0  0  0  0  0  0  0  0  0  0  0  0
    5.2937   -5.1128    0.0000 C   0  0  0  0  0  0  0  0  0  0  0  0
    4.8337   -3.6851    0.0000 C   0  0  0  0  0  0  0  0  0  0  0  0
    3.3672   -3.3696    0.0000 C   0  0  0  0  0  0  0  0  0  0  0  0
    2.8224    1.9412    0.0000 C   0  0  0  0  0  0  0  0  0  0  0  0
    4.2501    2.4012    0.0000 O   0  0  0  0  0  0  0  0  0  0  0  0
  1  2  1  0
  2  3  1  0
  3  4  1  0
  4  5  2  0
  4  6  1  0
  6  7  2  0
  7  8  1  0
  8  9  1  0
  9 10  1  0
 10 11  1  0
 11 12  1  0
 12 13  1  0
 13 14  1  0
 14 15  1  0
 14 16  1  0
 14 17  1  0
 12 18  1  0
 18 19  1  0
  7 20  1  0
 20 21  1  0
 21 22  2  0
 22 23  1  0
 23 24  2  0
 24 25  1  0
 25 26  1  0
 26 27  2  0
 27 28  1  0
 28 29  2  0
 29 30  1  0
 30 31  2  0
 21 32  1  0
 32 33  2  0
 32  6  1  0
 19  9  1  0
 31 23  1  0
 31 26  1  0
M  END
>  <BrandName>  (108) 


>  <Applicants>  (108) 
('Carna Biosciences',)

>  <CHEMBL_ID>  (108) 
CHEMBL4868568

>  <Canonical_Smiles>  (108) 
CCOC(=O)C1=C(NN2CCN(CC(F)(F)F)CC2)O/C(=C\c2c[nH]c3ncccc23)C1=O

>  <Chirality>  (108) 
Unknown

>  <First_Approval>  (108) 
nan

>  <Phase>  (108) 
2.0

>  <SC_Patent>  (108) 
nan

>  <Synonyms>  (108) 
MONZOSERTIB

>  <Withdrawn>  (108) 
nan

>  <Indications>  (108) 
nan

>  <Type>  (108) 
nan

>  <targets_id>  (108) 
nan

>  <Inchi>  (108) 
InChI=1S/C21H22F3N5O4/c1-2-32-20(31)16-17(30)15(10-13-11-26-18-14(13)4-3-5-25-18)33-19(16)27-29-8-6-28(7-9-29)12-21(22,23)24/h3-5,10-11,27H,2,6-9,12H2,1H3,(H,25,26)/b15-10-

>  <stdInchikey>  (108) 
DNTVXDZWVOVLOD-GDNBJRDFSA-N

>  <csid>  (108) 
103835514

>  <Links>  (108) 
|http://www.chemspider.com/Chemical-Structure.103835514.html|https://www.ebi.ac.uk/chembldb/compound/inspect/CHEMBL4868568

>  <LinkName>  (108) 
|ChemSpider|ChEMBL

>  <lig_pdb_ID>  (108) 


>  <pdb_IDs>  (108) 


>  <indicationDB>  (108) 


>  <uniprotId>  (108) 


>  <indicationG2P>  (108) 


>  <MW>  (108) 
465.2

>  <HBA>  (108) 
8

>  <HBD>  (108) 
2

>  <NRB>  (108) 
6

>  <TPSA>  (108) 
99.8

>  <LogP>  (108) 
2.0

>  <RoF>  (108) 
0

>  <Melting point>  (108) 
nan

>  <Targets>  (108) 
nan

>  <Kinase families>  (108) 


>  <FDA_approved>  (108) 


$$$$
Tinodasertib
     RDKit          2D

 31 35  0  0  0  0  0  0  0  0999 V2000
   -7.1431    5.3198    0.0000 N   0  0  0  0  0  0  0  0  0  0  0  0
   -6.5604    3.9376    0.0000 C   0  0  0  0  0  0  0  0  0  0  0  0
   -5.9778    2.5554    0.0000 C   0  0  0  0  0  0  0  0  0  0  0  0
   -4.4894    2.3689    0.0000 C   0  0  0  0  0  0  0  0  0  0  0  0
   -3.9067    0.9867    0.0000 C   0  0  0  0  0  0  0  0  0  0  0  0
   -4.8124   -0.2090    0.0000 C   0  0  0  0  0  0  0  0  0  0  0  0
   -4.2298   -1.5912    0.0000 C   0  0  0  0  0  0  0  0  0  0  0  0
   -5.0055   -2.8750    0.0000 C   0  0  0  0  0  0  0  0  0  0  0  0
   -4.0243   -4.0095    0.0000 N   0  0  0  0  0  0  0  0  0  0  0  0
   -2.6421   -3.4269    0.0000 C   0  0  0  0  0  0  0  0  0  0  0  0
   -1.2842   -4.0642    0.0000 C   0  0  0  0  0  0  0  0  0  0  0  0
   -0.0533   -3.2069    0.0000 C   0  0  0  0  0  0  0  0  0  0  0  0
   -0.1803   -1.7123    0.0000 C   0  0  0  0  0  0  0  0  0  0  0  0
    1.0505   -0.8550    0.0000 C   0  0  0  0  0  0  0  0  0  0  0  0
    2.4084   -1.4923    0.0000 C   0  0  0  0  0  0  0  0  0  0  0  0
    3.6393   -0.6350    0.0000 C   0  0  0  0  0  0  0  0  0  0  0  0
    3.5123    0.8596    0.0000 C   0  0  0  0  0  0  0  0  0  0  0  0
    4.7431    1.7169    0.0000 C   0  0  0  0  0  0  0  0  0  0  0  0
    4.6161    3.2116    0.0000 O   0  0  0  0  0  0  0  0  0  0  0  0
    6.1010    1.0796    0.0000 N   0  0  0  0  0  0  0  0  0  0  0  0
    6.2280   -0.4150    0.0000 C   0  0  0  0  0  0  0  0  0  0  0  0
    7.5859   -1.0523    0.0000 C   0  0  0  0  0  0  0  0  0  0  0  0
    8.8168   -0.1950    0.0000 O   0  0  0  0  0  0  0  0  0  0  0  0
    8.6898    1.2996    0.0000 C   0  0  0  0  0  0  0  0  0  0  0  0
    7.3319    1.9369    0.0000 C   0  0  0  0  0  0  0  0  0  0  0  0
    2.1544    1.4969    0.0000 C   0  0  0  0  0  0  0  0  0  0  0  0
    0.9235    0.6396    0.0000 C   0  0  0  0  0  0  0  0  0  0  0  0
   -1.5382   -1.0750    0.0000 C   0  0  0  0  0  0  0  0  0  0  0  0
   -2.7691   -1.9323    0.0000 N   0  0  0  0  0  0  0  0  0  0  0  0
   -6.3008   -0.0225    0.0000 C   0  0  0  0  0  0  0  0  0  0  0  0
   -6.8835    1.3597    0.0000 C   0  0  0  0  0  0  0  0  0  0  0  0
  1  2  3  0
  2  3  1  0
  3  4  2  0
  4  5  1  0
  5  6  2  0
  6  7  1  0
  7  8  2  0
  8  9  1  0
  9 10  2  0
 10 11  1  0
 11 12  2  0
 12 13  1  0
 13 14  1  0
 14 15  2  0
 15 16  1  0
 16 17  2  0
 17 18  1  0
 18 19  2  0
 18 20  1  0
 20 21  1  0
 21 22  1  0
 22 23  1  0
 23 24  1  0
 24 25  1  0
 17 26  1  0
 26 27  2  0
 13 28  2  0
 28 29  1  0
  6 30  1  0
 30 31  2  0
 31  3  1  0
 29  7  1  0
 29 10  1  0
 27 14  1  0
 25 20  1  0
M  END
>  <BrandName>  (109) 


>  <Applicants>  (109) 
('',)

>  <CHEMBL_ID>  (109) 
CHEMBL4211649

>  <Canonical_Smiles>  (109) 
N#Cc1ccc(-c2cnc3ccc(-c4ccc(C(=O)N5CCOCC5)cc4)cn23)cc1

>  <Chirality>  (109) 
Achiral Molecule

>  <First_Approval>  (109) 
nan

>  <Phase>  (109) 
2.0

>  <SC_Patent>  (109) 
nan

>  <Synonyms>  (109) 
AUM-001 | AUM001 | ETC-206 | ETC1907206 | TINODASERTIB

>  <Withdrawn>  (109) 
nan

>  <Indications>  (109) 
nan

>  <Type>  (109) 
nan

>  <targets_id>  (109) 
nan

>  <Inchi>  (109) 
InChI=1S/C25H20N4O2/c26-15-18-1-3-20(4-2-18)23-16-27-24-10-9-22(17-29(23)24)19-5-7-21(8-6-19)25(30)28-11-13-31-14-12-28/h1-10,16-17H,11-14H2

>  <stdInchikey>  (109) 
FWRFPHJSGLYXTD-UHFFFAOYSA-N

>  <csid>  (109) 
71046871

>  <Links>  (109) 
|http://www.chemspider.com/Chemical-Structure.71046871.html|https://www.ebi.ac.uk/chembldb/compound/inspect/CHEMBL4211649|https://pubchem.ncbi.nlm.nih.gov/compound/71766360|https://www.rcsb.org/ligand/X8K|https://www.ebi.ac.uk/pdbe-srv/pdbechem/chemicalCompound/show/X8K|https://www.bindingdb.org/bind/chemsearch/marvin/MolStructure.jsp?monomerid=375544

>  <LinkName>  (109) 
|ChemSpider|ChEMBL|PubChem|RCSB|PDBe|BindingDB

>  <lig_pdb_ID>  (109) 
X8K

>  <pdb_IDs>  (109) 
8p9b

>  <indicationDB>  (109) 


>  <uniprotId>  (109) 


>  <indicationG2P>  (109) 


>  <MW>  (109) 
408.2

>  <HBA>  (109) 
5

>  <HBD>  (109) 
0

>  <NRB>  (109) 
3

>  <TPSA>  (109) 
70.6

>  <LogP>  (109) 
4.0

>  <RoF>  (109) 
0

>  <Melting point>  (109) 
nan

>  <Targets>  (109) 
nan

>  <Kinase families>  (109) 


>  <FDA_approved>  (109) 


$$$$
Voxtalisib
     RDKit          2D

 20 22  0  0  0  0  0  0  0  0999 V2000
    2.5838    3.2352    0.0000 C   0  0  0  0  0  0  0  0  0  0  0  0
    1.1021    3.0014    0.0000 C   0  0  0  0  0  0  0  0  0  0  0  0
    0.5638    1.6013    0.0000 N   0  0  0  0  0  0  0  0  0  0  0  0
    1.5071    0.4351    0.0000 C   0  0  0  0  0  0  0  0  0  0  0  0
    0.9688   -0.9650    0.0000 C   0  0  0  0  0  0  0  0  0  0  0  0
   -0.5129   -1.1988    0.0000 C   0  0  0  0  0  0  0  0  0  0  0  0
   -1.4562   -0.0325    0.0000 C   0  0  0  0  0  0  0  0  0  0  0  0
   -0.9179    1.3675    0.0000 C   0  0  0  0  0  0  0  0  0  0  0  0
   -1.8612    2.5338    0.0000 O   0  0  0  0  0  0  0  0  0  0  0  0
   -2.9379   -0.2664    0.0000 C   0  0  0  0  0  0  0  0  0  0  0  0
   -3.6196   -1.6025    0.0000 C   0  0  0  0  0  0  0  0  0  0  0  0
   -5.1010   -1.3670    0.0000 C   0  0  0  0  0  0  0  0  0  0  0  0
   -5.3349    0.1147    0.0000 N   0  0  0  0  0  0  0  0  0  0  0  0
   -3.9980    0.7949    0.0000 N   0  0  0  0  0  0  0  0  0  0  0  0
    1.9121   -2.1312    0.0000 C   0  0  0  0  0  0  0  0  0  0  0  0
    3.3937   -1.8974    0.0000 N   0  0  0  0  0  0  0  0  0  0  0  0
    3.9321   -0.4973    0.0000 C   0  0  0  0  0  0  0  0  0  0  0  0
    2.9888    0.6689    0.0000 N   0  0  0  0  0  0  0  0  0  0  0  0
    5.4137   -0.2635    0.0000 N   0  0  0  0  0  0  0  0  0  0  0  0
    1.3737   -3.5313    0.0000 C   0  0  0  0  0  0  0  0  0  0  0  0
  1  2  1  0
  2  3  1  0
  3  4  1  0
  4  5  2  0
  5  6  1  0
  6  7  2  0
  7  8  1  0
  8  9  2  0
  7 10  1  0
 10 11  2  0
 11 12  1  0
 12 13  2  0
 13 14  1  0
  5 15  1  0
 15 16  2  0
 16 17  1  0
 17 18  2  0
 17 19  1  0
 15 20  1  0
  8  3  1  0
 18  4  1  0
 14 10  1  0
M  END
>  <BrandName>  (110) 


>  <Applicants>  (110) 
Sanofi

>  <CHEMBL_ID>  (110) 
CHEMBL3545366

>  <Canonical_Smiles>  (110) 
CCn1c2c(cc(c1=O)c3ccn[nH]3)c(nc(n2)N)C

>  <Chirality>  (110) 
Achiral Molecule

>  <First_Approval>  (110) 
nan

>  <Phase>  (110) 
2.0

>  <SC_Patent>  (110) 
nan

>  <Synonyms>  (110) 
SAR-245409 | SAR245409 | VOXTALISIB | XL-765 | XL765

>  <Withdrawn>  (110) 
nan

>  <Indications>  (110) 
nan

>  <Type>  (110) 
nan

>  <targets_id>  (110) 
P42336|P42345

>  <Inchi>  (110) 
InChI=1S/C13H14N6O/c1-3-19-11-8(7(2)16-13(14)17-11)6-9(12(19)20)10-4-5-15-18-10/h4-6H,3H2,1-2H3,(H,15,18)(H2,14,16,17)

>  <stdInchikey>  (110) 
RGHYDLZMTYDBDT-UHFFFAOYSA-N

>  <csid>  (110) 
17279963

>  <Links>  (110) 
|http://www.chemspider.com/Chemical-Structure.17279963.html|https://www.ebi.ac.uk/chembldb/compound/inspect/CHEMBL3545366|https://pubchem.ncbi.nlm.nih.gov/compound/16123056|https://go.drugbank.com/drugs/DB12400|https://zinc15.docking.org/substances/ZINC000035308805|https://precision.fda.gov/uniisearch/srs/unii/CVL1685GPH|https://www.bindingdb.org/bind/chemsearch/marvin/MolStructure.jsp?monomerid=50519385

>  <LinkName>  (110) 
|ChemSpider|ChEMBL|PubChem|DrugBank|ZINC|FDA SRS|BindingDB

>  <lig_pdb_ID>  (110) 


>  <pdb_IDs>  (110) 


>  <indicationDB>  (110) 


>  <uniprotId>  (110) 


>  <indicationG2P>  (110) 


>  <MW>  (110) 
270.1

>  <HBA>  (110) 
6

>  <HBD>  (110) 
2

>  <NRB>  (110) 
2

>  <TPSA>  (110) 
102.5

>  <LogP>  (110) 
1.1

>  <RoF>  (110) 
0

>  <Melting point>  (110) 
nan

>  <Targets>  (110) 
PIK3CA; MTOR

>  <Kinase families>  (110) 
Atypical

>  <FDA_approved>  (110) 


$$$$
Roginolisib
     RDKit          2D

 37 42  0  0  0  0  0  0  0  0999 V2000
   -5.6161   -0.4748    0.0000 O   0  0  0  0  0  0  0  0  0  0  0  0
   -4.6043    0.6326    0.0000 C   0  0  0  0  0  0  0  0  0  0  0  0
   -3.1394    0.3101    0.0000 C   0  0  0  0  0  0  0  0  0  0  0  0
   -2.0174    1.3057    0.0000 N   0  0  0  0  0  0  0  0  0  0  0  0
   -0.7239    0.5463    0.0000 N   0  0  0  0  0  0  0  0  0  0  0  0
    0.6509    1.1465    0.0000 C   0  0  0  0  0  0  0  0  0  0  0  0
    1.8580    0.2560    0.0000 C   0  0  0  0  0  0  0  0  0  0  0  0
    3.2327    0.8562    0.0000 C   0  0  0  0  0  0  0  0  0  0  0  0
    3.4003    2.3468    0.0000 C   0  0  0  0  0  0  0  0  0  0  0  0
    4.7750    2.9469    0.0000 C   0  0  0  0  0  0  0  0  0  0  0  0
    5.9821    2.0565    0.0000 N   0  0  0  0  0  0  0  0  0  0  0  0
    5.8145    0.5659    0.0000 C   0  0  0  0  0  0  0  0  0  0  0  0
    7.0216   -0.3246    0.0000 C   0  0  0  0  0  0  0  0  0  0  0  0
    8.3963    0.2756    0.0000 O   0  0  0  0  0  0  0  0  0  0  0  0
    8.5639    1.7662    0.0000 C   0  0  0  0  0  0  0  0  0  0  0  0
    7.3568    2.6566    0.0000 C   0  0  0  0  0  0  0  0  0  0  0  0
    2.1932    3.2372    0.0000 C   0  0  0  0  0  0  0  0  0  0  0  0
    0.8185    2.6371    0.0000 C   0  0  0  0  0  0  0  0  0  0  0  0
   -1.0463   -0.9186    0.0000 C   0  0  0  0  0  0  0  0  0  0  0  0
   -2.5392   -1.0646    0.0000 C   0  0  0  0  0  0  0  0  0  0  0  0
   -3.1593   -2.4304    0.0000 C   0  0  0  0  0  0  0  0  0  0  0  0
   -2.2864   -3.6503    0.0000 S   0  0  0  0  0  0  0  0  0  0  0  0
   -1.8834   -5.0952    0.0000 O   0  0  0  0  0  0  0  0  0  0  0  0
   -3.6393   -4.2981    0.0000 O   0  0  0  0  0  0  0  0  0  0  0  0
   -0.7935   -3.5043    0.0000 C   0  0  0  0  0  0  0  0  0  0  0  0
    0.0793   -4.7242    0.0000 C   0  0  0  0  0  0  0  0  0  0  0  0
   -0.5407   -6.0901    0.0000 F   0  0  0  0  0  0  0  0  0  0  0  0
    1.5722   -4.5783    0.0000 C   0  0  0  0  0  0  0  0  0  0  0  0
    2.1922   -3.2124    0.0000 C   0  0  0  0  0  0  0  0  0  0  0  0
    1.3194   -1.9925    0.0000 C   0  0  0  0  0  0  0  0  0  0  0  0
   -0.1735   -2.1385    0.0000 C   0  0  0  0  0  0  0  0  0  0  0  0
   -5.0575    2.0625    0.0000 N   0  0  0  0  0  0  0  0  0  0  0  0
   -4.0457    3.1699    0.0000 C   0  0  0  0  0  0  0  0  0  0  0  0
   -4.4989    4.5999    0.0000 C   0  0  0  0  0  0  0  0  0  0  0  0
   -5.9638    4.9223    0.0000 O   0  0  0  0  0  0  0  0  0  0  0  0
   -6.9756    3.8149    0.0000 C   0  0  0  0  0  0  0  0  0  0  0  0
   -6.5224    2.3850    0.0000 C   0  0  0  0  0  0  0  0  0  0  0  0
  1  2  2  0
  2  3  1  0
  3  4  2  0
  4  5  1  0
  5  6  1  0
  6  7  2  0
  7  8  1  0
  8  9  2  0
  9 10  1  0
 10 11  1  0
 11 12  1  0
 12 13  1  0
 13 14  1  0
 14 15  1  0
 15 16  1  0
  9 17  1  0
 17 18  2  0
  5 19  1  0
 19 20  2  0
 20 21  1  0
 21 22  1  0
 22 23  2  0
 22 24  2  0
 22 25  1  0
 25 26  2  0
 26 27  1  0
 26 28  1  0
 28 29  2  0
 29 30  1  0
 30 31  2  0
  2 32  1  0
 32 33  1  0
 33 34  1  0
 34 35  1  0
 35 36  1  0
 36 37  1  0
 20  3  1  0
 31 25  1  0
 37 32  1  0
 18  6  1  0
 31 19  1  0
 16 11  1  0
M  END
>  <BrandName>  (111) 


>  <Applicants>  (111) 
('iOnctura',)

>  <CHEMBL_ID>  (111) 
CHEMBL3683575

>  <Canonical_Smiles>  (111) 
O=C(c1nn(-c2ccc(CN3CCOCC3)cc2)c2c1CS(=O)(=O)c1c(F)cccc1-2)N1CCOCC1

>  <Chirality>  (111) 
Achiral Molecule

>  <First_Approval>  (111) 
nan

>  <Phase>  (111) 
2.0

>  <SC_Patent>  (111) 
nan

>  <Synonyms>  (111) 
IOA 244 | IOA-244 | IOA244 | MSC-2360844 | MSC2360844 | ROGINOLISIB

>  <Withdrawn>  (111) 
nan

>  <Indications>  (111) 
nan

>  <Type>  (111) 
nan

>  <targets_id>  (111) 
nan

>  <Inchi>  (111) 
InChI=1S/C26H27FN4O5S/c27-22-3-1-2-20-24-21(17-37(33,34)25(20)22)23(26(32)30-10-14-36-15-11-30)28-31(24)19-6-4-18(5-7-19)16-29-8-12-35-13-9-29/h1-7H,8-17H2

>  <stdInchikey>  (111) 
NFHSJYKXENYICE-UHFFFAOYSA-N

>  <csid>  (111) 
58926974

>  <Links>  (111) 
|http://www.chemspider.com/Chemical-Structure.58926974.html|https://www.ebi.ac.uk/chembldb/compound/inspect/CHEMBL3683575|https://pubchem.ncbi.nlm.nih.gov/compound/66580799|https://go.drugbank.com/drugs/DB18088|https://zinc15.docking.org/substances/ZINC000112941647|https://www.bindingdb.org/bind/chemsearch/marvin/MolStructure.jsp?monomerid=169989

>  <LinkName>  (111) 
|ChemSpider|ChEMBL|PubChem|DrugBank|ZINC|BindingDB

>  <lig_pdb_ID>  (111) 


>  <pdb_IDs>  (111) 


>  <indicationDB>  (111) 


>  <uniprotId>  (111) 


>  <indicationG2P>  (111) 


>  <MW>  (111) 
526.2

>  <HBA>  (111) 
8

>  <HBD>  (111) 
0

>  <NRB>  (111) 
4

>  <TPSA>  (111) 
94.0

>  <LogP>  (111) 
2.3

>  <RoF>  (111) 
1

>  <Melting point>  (111) 
nan

>  <Targets>  (111) 
nan

>  <Kinase families>  (111) 


>  <FDA_approved>  (111) 


$$$$
Oclacitinib
     RDKit          2D

 23 25  0  0  0  0  0  0  0  0999 V2000
   -4.1363    2.8709    0.0000 C   0  0  0  0  0  0  0  0  0  0  0  0
   -5.0543    1.6845    0.0000 N   0  0  0  0  0  0  0  0  0  0  0  0
   -4.4859    0.2964    0.0000 S   0  0  0  0  0  0  0  0  0  0  0  0
   -5.8741   -0.2720    0.0000 O   0  0  0  0  0  0  0  0  0  0  0  0
   -3.0978    0.8648    0.0000 O   0  0  0  0  0  0  0  0  0  0  0  0
   -3.9175   -1.0917    0.0000 C   0  0  0  0  0  0  0  0  0  0  0  0
   -2.4312   -1.2936    0.0000 C   0  0  0  0  0  0  0  0  0  0  0  0
   -1.5132   -0.1073    0.0000 C   0  0  0  0  0  0  0  0  0  0  0  0
   -0.0268   -0.3091    0.0000 C   0  0  0  0  0  0  0  0  0  0  0  0
    0.5416   -1.6972    0.0000 C   0  0  0  0  0  0  0  0  0  0  0  0
   -0.3764   -2.8835    0.0000 C   0  0  0  0  0  0  0  0  0  0  0  0
   -1.8628   -2.6817    0.0000 C   0  0  0  0  0  0  0  0  0  0  0  0
    2.0279   -1.8991    0.0000 N   0  0  0  0  0  0  0  0  0  0  0  0
    2.9459   -0.7127    0.0000 C   0  0  0  0  0  0  0  0  0  0  0  0
    4.4322   -0.9146    0.0000 N   0  0  0  0  0  0  0  0  0  0  0  0
    5.3502    0.2717    0.0000 C   0  0  0  0  0  0  0  0  0  0  0  0
    4.7818    1.6599    0.0000 N   0  0  0  0  0  0  0  0  0  0  0  0
    3.2955    1.8617    0.0000 C   0  0  0  0  0  0  0  0  0  0  0  0
    2.3775    0.6754    0.0000 C   0  0  0  0  0  0  0  0  0  0  0  0
    0.9656    1.1818    0.0000 C   0  0  0  0  0  0  0  0  0  0  0  0
    1.0109    2.6812    0.0000 C   0  0  0  0  0  0  0  0  0  0  0  0
    2.4509    3.1013    0.0000 N   0  0  0  0  0  0  0  0  0  0  0  0
    2.5963   -3.2872    0.0000 C   0  0  0  0  0  0  0  0  0  0  0  0
  1  2  1  0
  2  3  1  0
  3  4  2  0
  3  5  2  0
  3  6  1  0
  7  6  1  1
  7  8  1  0
  8  9  1  0
  9 10  1  0
 10 11  1  0
 11 12  1  0
 10 13  1  6
 13 14  1  0
 14 15  2  0
 15 16  1  0
 16 17  2  0
 17 18  1  0
 18 19  2  0
 19 20  1  0
 20 21  2  0
 21 22  1  0
 13 23  1  0
 12  7  1  0
 19 14  1  0
 22 18  1  0
M  END
>  <BrandName>  (112) 


>  <Applicants>  (112) 
Pfizer

>  <CHEMBL_ID>  (112) 
CHEMBL2103874

>  <Canonical_Smiles>  (112) 
CNS(=O)(=O)C[C@H]1CC[C@@H](CC1)N(c2ncnc3c2cc[nH]3)C

>  <Chirality>  (112) 
Single Stereoisomer

>  <First_Approval>  (112) 
nan

>  <Phase>  (112) 
2.0

>  <SC_Patent>  (112) 
nan

>  <Synonyms>  (112) 
JAK-I | JAKI | OCLACITINIB | PF 03394197 | PF-03394197

>  <Withdrawn>  (112) 
nan

>  <Indications>  (112) 
nan

>  <Type>  (112) 
nan

>  <targets_id>  (112) 
P23458|O60674|P52333

>  <Inchi>  (112) 
InChI=1S/C15H23N5O2S/c1-16-23(21,22)9-11-3-5-12(6-4-11)20(2)15-13-7-8-17-14(13)18-10-19-15/h7-8,10-12,16H,3-6,9H2,1-2H3,(H,17,18,19)/t11-,12-

>  <stdInchikey>  (112) 
HJWLJNBZVZDLAQ-HAQNSBGRSA-N

>  <csid>  (112) 
28528036

>  <Links>  (112) 
|http://www.chemspider.com/Chemical-Structure.28528036.html|https://www.ebi.ac.uk/chembldb/compound/inspect/CHEMBL2103874|https://www.guidetopharmacology.org/GRAC/LigandDisplayForward?9696|https://precision.fda.gov/uniisearch/srs/unii/99GS5XTB51

>  <LinkName>  (112) 
|ChemSpider|ChEMBL|Guide to Pharmacology|FDA SRS

>  <lig_pdb_ID>  (112) 


>  <pdb_IDs>  (112) 


>  <indicationDB>  (112) 


>  <uniprotId>  (112) 


>  <indicationG2P>  (112) 
None

>  <MW>  (112) 
337.2

>  <HBA>  (112) 
5

>  <HBD>  (112) 
2

>  <NRB>  (112) 
5

>  <TPSA>  (112) 
91.0

>  <LogP>  (112) 
1.5

>  <RoF>  (112) 
0

>  <Melting point>  (112) 
nan

>  <Targets>  (112) 
JAK1; JAK2; JAK3

>  <Kinase families>  (112) 
Tyr

>  <FDA_approved>  (112) 


$$$$
Sofnobrutinib
     RDKit          2D

 37 42  0  0  0  0  0  0  0  0999 V2000
    0.2338    5.7508    0.0000 C   0  0  0  0  0  0  0  0  0  0  0  0
   -0.7037    4.5798    0.0000 N   0  0  0  0  0  0  0  0  0  0  0  0
   -2.2021    4.6500    0.0000 C   0  0  0  0  0  0  0  0  0  0  0  0
   -2.7318    3.2466    0.0000 C   0  0  0  0  0  0  0  0  0  0  0  0
   -4.1785    2.8504    0.0000 N   0  0  0  0  0  0  0  0  0  0  0  0
   -4.5587    1.3993    0.0000 C   0  0  0  0  0  0  0  0  0  0  0  0
   -6.0054    1.0030    0.0000 N   0  0  0  0  0  0  0  0  0  0  0  0
   -6.3855   -0.4480    0.0000 C   0  0  0  0  0  0  0  0  0  0  0  0
   -7.8322   -0.8443    0.0000 N   0  0  0  0  0  0  0  0  0  0  0  0
   -5.3190   -1.5027    0.0000 N   0  0  0  0  0  0  0  0  0  0  0  0
   -3.8723   -1.1064    0.0000 C   0  0  0  0  0  0  0  0  0  0  0  0
   -2.8057   -2.1612    0.0000 C   0  0  0  0  0  0  0  0  0  0  0  0
   -3.1859   -3.6122    0.0000 C   0  0  0  0  0  0  0  0  0  0  0  0
   -2.1194   -4.6669    0.0000 C   0  0  0  0  0  0  0  0  0  0  0  0
   -0.6727   -4.2707    0.0000 C   0  0  0  0  0  0  0  0  0  0  0  0
   -0.2925   -2.8196    0.0000 C   0  0  0  0  0  0  0  0  0  0  0  0
    1.1542   -2.4233    0.0000 N   0  0  0  0  0  0  0  0  0  0  0  0
    2.2208   -3.4781    0.0000 C   0  0  0  0  0  0  0  0  0  0  0  0
    3.6675   -3.0818    0.0000 C   0  0  0  0  0  0  0  0  0  0  0  0
    4.0476   -1.6308    0.0000 C   0  0  0  0  0  0  0  0  0  0  0  0
    5.4943   -1.2345    0.0000 C   0  0  0  0  0  0  0  0  0  0  0  0
    5.8745    0.2165    0.0000 C   0  0  0  0  0  0  0  0  0  0  0  0
    7.3212    0.6128    0.0000 C   0  0  0  0  0  0  0  0  0  0  0  0
    8.3759    1.6794    0.0000 C   0  0  0  0  0  0  0  0  0  0  0  0
    8.7722    0.2327    0.0000 C   0  0  0  0  0  0  0  0  0  0  0  0
    4.8079    1.2713    0.0000 C   0  0  0  0  0  0  0  0  0  0  0  0
    3.3612    0.8750    0.0000 C   0  0  0  0  0  0  0  0  0  0  0  0
    2.2947    1.9297    0.0000 F   0  0  0  0  0  0  0  0  0  0  0  0
    2.9811   -0.5760    0.0000 C   0  0  0  0  0  0  0  0  0  0  0  0
    1.5344   -0.9723    0.0000 C   0  0  0  0  0  0  0  0  0  0  0  0
    0.4678    0.0824    0.0000 O   0  0  0  0  0  0  0  0  0  0  0  0
   -1.3590   -1.7649    0.0000 C   0  0  0  0  0  0  0  0  0  0  0  0
   -0.9789   -0.3139    0.0000 C   0  0  0  0  0  0  0  0  0  0  0  0
   -2.0454    0.7409    0.0000 O   0  0  0  0  0  0  0  0  0  0  0  0
   -3.4921    0.3446    0.0000 N   0  0  0  0  0  0  0  0  0  0  0  0
   -1.5609    2.3092    0.0000 C   0  0  0  0  0  0  0  0  0  0  0  0
   -0.3074    3.1331    0.0000 N   0  0  0  0  0  0  0  0  0  0  0  0
  1  2  1  0
  2  3  1  0
  3  4  2  0
  4  5  1  0
  5  6  1  0
  6  7  2  0
  7  8  1  0
  8  9  1  0
  8 10  2  0
 10 11  1  0
 11 12  1  0
 12 13  2  0
 13 14  1  0
 14 15  2  0
 15 16  1  0
 16 17  1  0
 17 18  1  0
 18 19  2  0
 19 20  1  0
 20 21  2  0
 21 22  1  0
 22 23  1  0
 23 24  1  0
 24 25  1  0
 22 26  2  0
 26 27  1  0
 27 28  1  0
 27 29  2  0
 29 30  1  0
 30 31  2  0
 16 32  2  0
 32 33  1  0
 33 34  1  0
 11 35  2  0
  4 36  1  0
 36 37  2  0
 37  2  1  0
 35  6  1  0
 32 12  1  0
 30 17  1  0
 29 20  1  0
 25 23  1  0
M  END
>  <BrandName>  (113) 


>  <Applicants>  (113) 
('Carna Biosciences',)

>  <CHEMBL_ID>  (113) 
CHEMBL4209441

>  <Canonical_Smiles>  (113) 
Cn1cc(Nc2nc(N)nc(-c3cccc(-n4ccc5cc(C6CC6)cc(F)c5c4=O)c3CO)n2)cn1

>  <Chirality>  (113) 
Achiral Molecule

>  <First_Approval>  (113) 
nan

>  <Phase>  (113) 
2.0

>  <SC_Patent>  (113) 
nan

>  <Synonyms>  (113) 
AS-0871 | SOFNOBRUTINIB

>  <Withdrawn>  (113) 
nan

>  <Indications>  (113) 
nan

>  <Type>  (113) 
nan

>  <targets_id>  (113) 
nan

>  <Inchi>  (113) 
InChI=1S/C26H23FN8O2/c1-34-12-17(11-29-34)30-26-32-23(31-25(28)33-26)18-3-2-4-21(19(18)13-36)35-8-7-15-9-16(14-5-6-14)10-20(27)22(15)24(35)37/h2-4,7-12,14,36H,5-6,13H2,1H3,(H3,28,30,31,32,33)

>  <stdInchikey>  (113) 
RQYDQAPLARKISN-UHFFFAOYSA-N

>  <csid>  (113) 
90630010

>  <Links>  (113) 
|http://www.chemspider.com/Chemical-Structure.90630010.html|https://www.ebi.ac.uk/chembldb/compound/inspect/CHEMBL4209441|https://pubchem.ncbi.nlm.nih.gov/compound/87056204|https://www.guidetopharmacology.org/GRAC/LigandDisplayForward?10094|https://www.bindingdb.org/bind/chemsearch/marvin/MolStructure.jsp?monomerid=50459553

>  <LinkName>  (113) 
|ChemSpider|ChEMBL|PubChem|Guide to Pharmacology|BindingDB

>  <lig_pdb_ID>  (113) 


>  <pdb_IDs>  (113) 


>  <indicationDB>  (113) 


>  <uniprotId>  (113) 


>  <indicationG2P>  (113) 
None

>  <MW>  (113) 
498.2

>  <HBA>  (113) 
10

>  <HBD>  (113) 
3

>  <NRB>  (113) 
6

>  <TPSA>  (113) 
136.8

>  <LogP>  (113) 
3.4

>  <RoF>  (113) 
0

>  <Melting point>  (113) 
nan

>  <Targets>  (113) 
nan

>  <Kinase families>  (113) 


>  <FDA_approved>  (113) 


$$$$
Emprumapimod
     RDKit          2D

 34 36  0  0  0  0  0  0  0  0999 V2000
    1.3645   -7.4763    0.0000 C   0  0  0  0  0  0  0  0  0  0  0  0
    0.1545   -6.5898    0.0000 C   0  0  0  0  0  0  0  0  0  0  0  0
   -1.2182   -7.1946    0.0000 C   0  0  0  0  0  0  0  0  0  0  0  0
    0.3171   -5.0987    0.0000 C   0  0  0  0  0  0  0  0  0  0  0  0
   -0.8930   -4.2123    0.0000 N   0  0  0  0  0  0  0  0  0  0  0  0
   -0.8871   -2.7123    0.0000 C   0  0  0  0  0  0  0  0  0  0  0  0
    0.2316   -1.7129    0.0000 C   0  0  0  0  0  0  0  0  0  0  0  0
   -0.0746   -0.2445    0.0000 C   0  0  0  0  0  0  0  0  0  0  0  0
    1.0441    0.7548    0.0000 C   0  0  0  0  0  0  0  0  0  0  0  0
    2.4688    0.2857    0.0000 N   0  0  0  0  0  0  0  0  0  0  0  0
    3.5875    1.2850    0.0000 C   0  0  0  0  0  0  0  0  0  0  0  0
    3.2814    2.7535    0.0000 C   0  0  0  0  0  0  0  0  0  0  0  0
    4.4000    3.7528    0.0000 N   0  0  0  0  0  0  0  0  0  0  0  0
    1.8566    3.2226    0.0000 O   0  0  0  0  0  0  0  0  0  0  0  0
    5.0122    0.8159    0.0000 C   0  0  0  0  0  0  0  0  0  0  0  0
    6.1309    1.8152    0.0000 C   0  0  0  0  0  0  0  0  0  0  0  0
    7.5556    1.3461    0.0000 N   0  0  0  0  0  0  0  0  0  0  0  0
    8.6743    2.3455    0.0000 C   0  0  0  0  0  0  0  0  0  0  0  0
    7.8618   -0.1223    0.0000 C   0  0  0  0  0  0  0  0  0  0  0  0
    0.7380    2.2232    0.0000 O   0  0  0  0  0  0  0  0  0  0  0  0
   -1.4993    0.2246    0.0000 C   0  0  0  0  0  0  0  0  0  0  0  0
   -1.8054    1.6930    0.0000 O   0  0  0  0  0  0  0  0  0  0  0  0
   -3.2302    2.1621    0.0000 C   0  0  0  0  0  0  0  0  0  0  0  0
   -3.5363    3.6306    0.0000 C   0  0  0  0  0  0  0  0  0  0  0  0
   -4.9611    4.0997    0.0000 C   0  0  0  0  0  0  0  0  0  0  0  0
   -6.0797    3.1004    0.0000 C   0  0  0  0  0  0  0  0  0  0  0  0
   -5.7736    1.6319    0.0000 C   0  0  0  0  0  0  0  0  0  0  0  0
   -4.3488    1.1628    0.0000 C   0  0  0  0  0  0  0  0  0  0  0  0
   -7.5045    3.5695    0.0000 F   0  0  0  0  0  0  0  0  0  0  0  0
   -2.4177    4.6299    0.0000 F   0  0  0  0  0  0  0  0  0  0  0  0
   -2.6180   -0.7747    0.0000 C   0  0  0  0  0  0  0  0  0  0  0  0
   -2.3118   -2.2432    0.0000 C   0  0  0  0  0  0  0  0  0  0  0  0
   -3.1983   -3.4532    0.0000 C   0  0  0  0  0  0  0  0  0  0  0  0
   -2.3213   -4.6702    0.0000 N   0  0  0  0  0  0  0  0  0  0  0  0
  1  2  1  0
  2  3  1  0
  2  4  1  0
  4  5  1  0
  5  6  1  0
  6  7  2  0
  7  8  1  0
  8  9  1  0
  9 10  1  0
 10 11  1  0
 11 12  1  0
 12 13  1  0
 12 14  2  0
 11 15  1  6
 15 16  1  0
 16 17  1  0
 17 18  1  0
 17 19  1  0
  9 20  2  0
  8 21  2  0
 21 22  1  0
 22 23  1  0
 23 24  2  0
 24 25  1  0
 25 26  2  0
 26 27  1  0
 27 28  2  0
 26 29  1  0
 24 30  1  0
 21 31  1  0
 31 32  2  0
 32 33  1  0
 33 34  2  0
 34  5  1  0
 32  6  1  0
 28 23  1  0
M  END
>  <BrandName>  (114) 


>  <Applicants>  (114) 
Pfizer

>  <CHEMBL_ID>  (114) 
CHEMBL4802251

>  <Canonical_Smiles>  (114) 
CC(C)CN1C2=CC(C(N[C@H](C(N)=O)CCN(C)C)=O)=C(OC3=C(C=C(C=C3)F)F)C=C2C=N1

>  <Chirality>  (114) 
Single Stereoisomer

>  <First_Approval>  (114) 
nan

>  <Phase>  (114) 
2.0

>  <SC_Patent>  (114) 
nan

>  <Synonyms>  (114) 
|PF-07265803|PF-06802861

>  <Withdrawn>  (114) 
nan

>  <Indications>  (114) 
nan

>  <Type>  (114) 
nan

>  <targets_id>  (114) 
nan

>  <Inchi>  (114) 
InChI=1S/C24H29F2N5O3/c1-24(2,3)31-19-12-16(23(33)29-18(22(27)32)8-9-30(4)5)21(10-14(19)13-28-31)34-20-7-6-15(25)11-17(20)26/h6-7,10-13,18H,8-9H2,1-5H3,(H2,27,32)(H,29,33)/t18-/m0/s1

>  <stdInchikey>  (114) 
JOOOJNJPZINWHM-IBGZPJMESA-N

>  <csid>  (114) 
115010416

>  <Links>  (114) 
|http://www.chemspider.com/Chemical-Structure.115010416.html|https://pubchem.ncbi.nlm.nih.gov/compound/67411502|https://go.drugbank.com/drugs/DB17603|https://precision.fda.gov/uniisearch/srs/unii/4JG61K4659

>  <LinkName>  (114) 
|ChemSpider|PubChem|DrugBank|FDA SRS

>  <lig_pdb_ID>  (114) 


>  <pdb_IDs>  (114) 


>  <indicationDB>  (114) 


>  <uniprotId>  (114) 


>  <indicationG2P>  (114) 


>  <MW>  (114) 
473.2

>  <HBA>  (114) 
6

>  <HBD>  (114) 
2

>  <NRB>  (114) 
10

>  <TPSA>  (114) 
102.5

>  <LogP>  (114) 
3.3

>  <RoF>  (114) 
0

>  <Melting point>  (114) 
nan

>  <Targets>  (114) 
nan

>  <Kinase families>  (114) 


>  <FDA_approved>  (114) 


$$$$
Elsubrutinib
     RDKit          2D

 22 24  0  0  0  0  0  0  0  0999 V2000
   -6.7203   -1.6016    0.0000 C   0  0  0  0  0  0  0  0  0  0  0  0
   -5.7289   -0.4759    0.0000 C   0  0  0  0  0  0  0  0  0  0  0  0
   -4.2584   -0.7716    0.0000 C   0  0  0  0  0  0  0  0  0  0  0  0
   -3.7792   -2.1930    0.0000 O   0  0  0  0  0  0  0  0  0  0  0  0
   -3.2670    0.3541    0.0000 N   0  0  0  0  0  0  0  0  0  0  0  0
   -3.7462    1.7755    0.0000 C   0  0  0  0  0  0  0  0  0  0  0  0
   -2.7549    2.9012    0.0000 C   0  0  0  0  0  0  0  0  0  0  0  0
   -1.2843    2.6055    0.0000 C   0  0  0  0  0  0  0  0  0  0  0  0
   -0.8051    1.1842    0.0000 C   0  0  0  0  0  0  0  0  0  0  0  0
    0.6655    0.8885    0.0000 C   0  0  0  0  0  0  0  0  0  0  0  0
    1.6568    2.0142    0.0000 C   0  0  0  0  0  0  0  0  0  0  0  0
    3.1274    1.7185    0.0000 C   0  0  0  0  0  0  0  0  0  0  0  0
    3.6066    0.2971    0.0000 C   0  0  0  0  0  0  0  0  0  0  0  0
    5.0772    0.0014    0.0000 C   0  0  0  0  0  0  0  0  0  0  0  0
    6.0685    1.1272    0.0000 N   0  0  0  0  0  0  0  0  0  0  0  0
    5.5564   -1.4199    0.0000 O   0  0  0  0  0  0  0  0  0  0  0  0
    2.6153   -0.8286    0.0000 C   0  0  0  0  0  0  0  0  0  0  0  0
    2.7885   -2.3186    0.0000 N   0  0  0  0  0  0  0  0  0  0  0  0
    1.4250   -2.9437    0.0000 C   0  0  0  0  0  0  0  0  0  0  0  0
    0.4090   -1.8401    0.0000 C   0  0  0  0  0  0  0  0  0  0  0  0
    1.1447   -0.5329    0.0000 C   0  0  0  0  0  0  0  0  0  0  0  0
   -1.7965    0.0584    0.0000 C   0  0  0  0  0  0  0  0  0  0  0  0
  1  2  2  0
  2  3  1  0
  3  4  2  0
  3  5  1  0
  5  6  1  0
  6  7  1  0
  7  8  1  0
  8  9  1  0
  9 10  1  1
 10 11  2  0
 11 12  1  0
 12 13  2  0
 13 14  1  0
 14 15  1  0
 14 16  2  0
 13 17  1  0
 17 18  1  0
 18 19  1  0
 19 20  2  0
 20 21  1  0
  9 22  1  0
 22  5  1  0
 21 10  1  0
 21 17  2  0
M  END
>  <BrandName>  (115) 


>  <Applicants>  (115) 
Abbvie

>  <CHEMBL_ID>  (115) 
CHEMBL4594348

>  <Canonical_Smiles>  (115) 
C=CC(=O)N1CCC[C@@H](c2ccc(C(N)=O)c3[nH]ccc23)C1

>  <Chirality>  (115) 
Single Stereoisomer

>  <First_Approval>  (115) 
nan

>  <Phase>  (115) 
2.0

>  <SC_Patent>  (115) 
nan

>  <Synonyms>  (115) 
ABBV-105 | ABBV105 | ELSUBRUTINIB

>  <Withdrawn>  (115) 
{''}

>  <Indications>  (115) 
nan

>  <Type>  (115) 
nan

>  <targets_id>  (115) 
nan

>  <Inchi>  (115) 
InChI=1S/C17H19N3O2/c1-2-15(21)20-9-3-4-11(10-20)12-5-6-14(17(18)22)16-13(12)7-8-19-16/h2,5-8,11,19H,1,3-4,9-10H2,(H2,18,22)/t11-/m1/s1

>  <stdInchikey>  (115) 
UNHZLHSLZZWMNP-LLVKDONJSA-N

>  <csid>  (115) 
72380148

>  <Links>  (115) 
|http://www.chemspider.com/Chemical-Structure.72380148.html|https://www.ebi.ac.uk/chembldb/compound/inspect/CHEMBL4594348|https://pubchem.ncbi.nlm.nih.gov/compound/117773770|https://www.guidetopharmacology.org/GRAC/LigandDisplayForward?10464|https://zinc15.docking.org/substances/ZINC000220885814|https://precision.fda.gov/uniisearch/srs/unii/1487U1Q3IQ

>  <LinkName>  (115) 
|ChemSpider|ChEMBL|PubChem|Guide to Pharmacology|ZINC|FDA SRS

>  <lig_pdb_ID>  (115) 


>  <pdb_IDs>  (115) 


>  <indicationDB>  (115) 


>  <uniprotId>  (115) 


>  <indicationG2P>  (115) 
None

>  <MW>  (115) 
297.1

>  <HBA>  (115) 
2

>  <HBD>  (115) 
2

>  <NRB>  (115) 
3

>  <TPSA>  (115) 
79.2

>  <LogP>  (115) 
2.2

>  <RoF>  (115) 
0

>  <Melting point>  (115) 
nan

>  <Targets>  (115) 
nan

>  <Kinase families>  (115) 


>  <FDA_approved>  (115) 


$$$$
Befotertinib
     RDKit          2D

 41 44  0  0  0  0  0  0  0  0999 V2000
    2.6386   -4.9485    0.0000 C   0  0  0  0  0  0  0  0  0  0  0  0
    1.6916   -3.7853    0.0000 C   0  0  0  0  0  0  0  0  0  0  0  0
    2.2255   -2.3835    0.0000 C   0  0  0  0  0  0  0  0  0  0  0  0
    3.3182   -2.3425    0.0000 O   0  0  0  0  0  0  0  0  0  0  0  0
    1.2784   -1.2203    0.0000 N   0  0  0  0  0  0  0  0  0  0  0  0
    1.8123    0.1815    0.0000 C   0  0  0  0  0  0  0  0  0  0  0  0
    0.8653    1.3448    0.0000 C   0  0  0  0  0  0  0  0  0  0  0  0
    1.3992    2.7465    0.0000 C   0  0  0  0  0  0  0  0  0  0  0  0
    0.4521    3.9098    0.0000 N   0  0  0  0  0  0  0  0  0  0  0  0
   -1.0288    3.6712    0.0000 C   0  0  0  0  0  0  0  0  0  0  0  0
   -1.9758    4.8345    0.0000 N   0  0  0  0  0  0  0  0  0  0  0  0
   -3.4567    4.5959    0.0000 C   0  0  0  0  0  0  0  0  0  0  0  0
   -3.9906    3.1942    0.0000 C   0  0  0  0  0  0  0  0  0  0  0  0
   -3.0436    2.0309    0.0000 C   0  0  0  0  0  0  0  0  0  0  0  0
   -3.5775    0.6291    0.0000 C   0  0  0  0  0  0  0  0  0  0  0  0
   -5.0253    0.2371    0.0000 C   0  0  0  0  0  0  0  0  0  0  0  0
   -5.0999   -1.2610    0.0000 N   0  0  0  0  0  0  0  0  0  0  0  0
   -6.3558   -2.0813    0.0000 C   0  0  0  0  0  0  0  0  0  0  0  0
   -7.6940   -1.4038    0.0000 C   0  0  0  0  0  0  0  0  0  0  0  0
   -9.0323   -0.7263    0.0000 F   0  0  0  0  0  0  0  0  0  0  0  0
   -8.3715   -2.7421    0.0000 F   0  0  0  0  0  0  0  0  0  0  0  0
   -7.0166   -0.0655    0.0000 F   0  0  0  0  0  0  0  0  0  0  0  0
   -3.6981   -1.7949    0.0000 C   0  0  0  0  0  0  0  0  0  0  0  0
   -3.1569   -3.1939    0.0000 C   0  0  0  0  0  0  0  0  0  0  0  0
   -1.6748   -3.4246    0.0000 C   0  0  0  0  0  0  0  0  0  0  0  0
   -0.7338   -2.2564    0.0000 C   0  0  0  0  0  0  0  0  0  0  0  0
   -1.2751   -0.8575    0.0000 C   0  0  0  0  0  0  0  0  0  0  0  0
   -2.7572   -0.6267    0.0000 C   0  0  0  0  0  0  0  0  0  0  0  0
   -1.5627    2.2695    0.0000 N   0  0  0  0  0  0  0  0  0  0  0  0
    2.8801    2.9851    0.0000 C   0  0  0  0  0  0  0  0  0  0  0  0
    3.4140    4.3868    0.0000 O   0  0  0  0  0  0  0  0  0  0  0  0
    4.8949    4.6254    0.0000 C   0  0  0  0  0  0  0  0  0  0  0  0
    3.8271    1.8218    0.0000 C   0  0  0  0  0  0  0  0  0  0  0  0
    3.2932    0.4201    0.0000 C   0  0  0  0  0  0  0  0  0  0  0  0
    4.2403   -0.7432    0.0000 N   0  0  0  0  0  0  0  0  0  0  0  0
    3.9785   -1.8049    0.0000 C   0  0  0  0  0  0  0  0  0  0  0  0
    5.7212   -0.5046    0.0000 C   0  0  0  0  0  0  0  0  0  0  0  0
    6.6682   -1.6679    0.0000 C   0  0  0  0  0  0  0  0  0  0  0  0
    8.1491   -1.4294    0.0000 N   0  0  0  0  0  0  0  0  0  0  0  0
    9.0962   -2.5926    0.0000 C   0  0  0  0  0  0  0  0  0  0  0  0
    8.6830   -0.0276    0.0000 C   0  0  0  0  0  0  0  0  0  0  0  0
  1  2  2  0
  2  3  1  0
  3  4  2  0
  3  5  1  0
  5  6  1  0
  6  7  2  0
  7  8  1  0
  8  9  1  0
  9 10  1  0
 10 11  2  0
 11 12  1  0
 12 13  2  0
 13 14  1  0
 14 15  1  0
 15 16  2  0
 16 17  1  0
 17 18  1  0
 18 19  1  0
 19 20  1  0
 19 21  1  0
 19 22  1  0
 17 23  1  0
 23 24  2  0
 24 25  1  0
 25 26  2  0
 26 27  1  0
 27 28  2  0
 14 29  2  0
  8 30  2  0
 30 31  1  0
 31 32  1  0
 30 33  1  0
 33 34  2  0
 34 35  1  0
 35 36  1  0
 35 37  1  0
 37 38  1  0
 38 39  1  0
 39 40  1  0
 39 41  1  0
 34  6  1  0
 29 10  1  0
 28 15  1  0
 28 23  1  0
M  END
>  <BrandName>  (116) 


>  <Applicants>  (116) 
InventisBio

>  <CHEMBL_ID>  (116) 
CHEMBL5095167

>  <Canonical_Smiles>  (116) 
C=CC(=O)Nc1cc(Nc2nccc(-c3cn(CC(F)(F)F)c4ccccc34)n2)c(OC)cc1N(C)CCN(C)C

>  <Chirality>  (116) 
Achiral Molecule

>  <First_Approval>  (116) 
nan

>  <Phase>  (116) 
2.0

>  <SC_Patent>  (116) 
nan

>  <Synonyms>  (116) 
BEFOTERTINIB | D 0316 | D-0316 | D0316

>  <Withdrawn>  (116) 
{''}

>  <Indications>  (116) 
nan

>  <Type>  (116) 
nan

>  <targets_id>  (116) 
nan

>  <Inchi>  (116) 
InChI=1S/C29H32F3N7O2/c1-6-27(40)34-22-15-23(26(41-5)16-25(22)38(4)14-13-37(2)3)36-28-33-12-11-21(35-28)20-17-39(18-29(30,31)32)24-10-8-7-9-19(20)24/h6-12,15-17H,1,13-14,18H2,2-5H3,(H,34,40)(H,33,35,36)

>  <stdInchikey>  (116) 
USOCZVZOXKTJTI-UHFFFAOYSA-N

>  <csid>  (116) 
115006925

>  <Links>  (116) 
|http://www.chemspider.com/Chemical-Structure.115006925.html|https://www.ebi.ac.uk/chembldb/compound/inspect/CHEMBL5095167|https://pubchem.ncbi.nlm.nih.gov/compound/130412842|https://precision.fda.gov/uniisearch/srs/unii/0XT2CPR891

>  <LinkName>  (116) 
|ChemSpider|ChEMBL|PubChem|FDA SRS

>  <lig_pdb_ID>  (116) 


>  <pdb_IDs>  (116) 


>  <indicationDB>  (116) 


>  <uniprotId>  (116) 


>  <indicationG2P>  (116) 


>  <MW>  (116) 
567.3

>  <HBA>  (116) 
8

>  <HBD>  (116) 
2

>  <NRB>  (116) 
11

>  <TPSA>  (116) 
87.5

>  <LogP>  (116) 
5.5

>  <RoF>  (116) 
2

>  <Melting point>  (116) 
nan

>  <Targets>  (116) 
nan

>  <Kinase families>  (116) 


>  <FDA_approved>  (116) 


$$$$
Belvarafenib
     RDKit          2D

 33 37  0  0  0  0  0  0  0  0999 V2000
    1.0964    4.9550    0.0000 C   0  0  0  0  0  0  0  0  0  0  0  0
    0.1460    3.7945    0.0000 C   0  0  0  0  0  0  0  0  0  0  0  0
    0.6758    2.3912    0.0000 C   0  0  0  0  0  0  0  0  0  0  0  0
   -0.2746    1.2307    0.0000 C   0  0  0  0  0  0  0  0  0  0  0  0
   -1.7548    1.4736    0.0000 C   0  0  0  0  0  0  0  0  0  0  0  0
   -2.2846    2.8769    0.0000 C   0  0  0  0  0  0  0  0  0  0  0  0
   -1.3342    4.0374    0.0000 C   0  0  0  0  0  0  0  0  0  0  0  0
   -2.7052    0.3131    0.0000 C   0  0  0  0  0  0  0  0  0  0  0  0
   -2.1754   -1.0902    0.0000 N   0  0  0  0  0  0  0  0  0  0  0  0
   -0.6952   -1.3331    0.0000 C   0  0  0  0  0  0  0  0  0  0  0  0
    0.2552   -0.1726    0.0000 C   0  0  0  0  0  0  0  0  0  0  0  0
   -4.1855    0.5559    0.0000 N   0  0  0  0  0  0  0  0  0  0  0  0
   -5.1359   -0.6046    0.0000 C   0  0  0  0  0  0  0  0  0  0  0  0
   -6.6161   -0.3617    0.0000 C   0  0  0  0  0  0  0  0  0  0  0  0
   -7.5665   -1.5222    0.0000 C   0  0  0  0  0  0  0  0  0  0  0  0
   -7.0367   -2.9255    0.0000 C   0  0  0  0  0  0  0  0  0  0  0  0
   -5.5565   -3.1684    0.0000 C   0  0  0  0  0  0  0  0  0  0  0  0
   -4.6061   -2.0079    0.0000 C   0  0  0  0  0  0  0  0  0  0  0  0
   -9.0467   -1.2794    0.0000 Cl  0  0  0  0  0  0  0  0  0  0  0  0
   -7.1459    1.0416    0.0000 F   0  0  0  0  0  0  0  0  0  0  0  0
    2.1560    2.1484    0.0000 N   0  0  0  0  0  0  0  0  0  0  0  0
    2.6858    0.7450    0.0000 C   0  0  0  0  0  0  0  0  0  0  0  0
    1.7354   -0.4154    0.0000 O   0  0  0  0  0  0  0  0  0  0  0  0
    4.1660    0.5022    0.0000 C   0  0  0  0  0  0  0  0  0  0  0  0
    5.2325    1.5570    0.0000 C   0  0  0  0  0  0  0  0  0  0  0  0
    6.5653    0.8686    0.0000 S   0  0  0  0  0  0  0  0  0  0  0  0
    6.3224   -0.6116    0.0000 C   0  0  0  0  0  0  0  0  0  0  0  0
    4.8396   -0.8381    0.0000 C   0  0  0  0  0  0  0  0  0  0  0  0
    4.2943   -2.2354    0.0000 N   0  0  0  0  0  0  0  0  0  0  0  0
    5.2318   -3.4064    0.0000 C   0  0  0  0  0  0  0  0  0  0  0  0
    6.7147   -3.1799    0.0000 N   0  0  0  0  0  0  0  0  0  0  0  0
    7.2599   -1.7825    0.0000 C   0  0  0  0  0  0  0  0  0  0  0  0
    8.7427   -1.5561    0.0000 N   0  0  0  0  0  0  0  0  0  0  0  0
  1  2  1  0
  2  3  2  0
  3  4  1  0
  4  5  2  0
  5  6  1  0
  6  7  2  0
  5  8  1  0
  8  9  2  0
  9 10  1  0
 10 11  2  0
  8 12  1  0
 12 13  1  0
 13 14  2  0
 14 15  1  0
 15 16  2  0
 16 17  1  0
 17 18  2  0
 15 19  1  0
 14 20  1  0
  3 21  1  0
 21 22  1  0
 22 23  2  0
 22 24  1  0
 24 25  2  0
 25 26  1  0
 26 27  1  0
 27 28  2  0
 28 29  1  0
 29 30  2  0
 30 31  1  0
 31 32  2  0
 32 33  1  0
  7  2  1  0
 11  4  1  0
 18 13  1  0
 28 24  1  0
 32 27  1  0
M  END
>  <BrandName>  (117) 


>  <Applicants>  (117) 
Hanmi Pharmaceutical

>  <CHEMBL_ID>  (117) 
CHEMBL3977543

>  <Canonical_Smiles>  (117) 
CC1=C(C2=C(C=C1)C(=NC=C2)NC3=C(C(=CC=C3)Cl)F)NC(=O)C4=CSC5=C4N=CN=C5N

>  <Chirality>  (117) 
Achiral Molecule

>  <First_Approval>  (117) 
nan

>  <Phase>  (117) 
2.0

>  <SC_Patent>  (117) 
nan

>  <Synonyms>  (117) 
BELVARAFENIB

>  <Withdrawn>  (117) 
{''}

>  <Indications>  (117) 
nan

>  <Type>  (117) 
nan

>  <targets_id>  (117) 
nan

>  <Inchi>  (117) 
InChI=1S/C23H16ClFN6OS/c1-11-5-6-13-12(7-8-27-22(13)30-16-4-2-3-15(24)17(16)25)18(11)31-23(32)14-9-33-20-19(14)28-10-29-21(20)26/h2-10H,1H3,(H,27,30)(H,31,32)(H2,26,28,29)

>  <stdInchikey>  (117) 
KVCQTKNUUQOELD-UHFFFAOYSA-N

>  <csid>  (117) 
64878400

>  <Links>  (117) 
|http://www.chemspider.com/Chemical-Structure.64878400.html|https://www.ebi.ac.uk/chembldb/compound/inspect/CHEMBL3977543|https://pubchem.ncbi.nlm.nih.gov/compound/89655386|https://go.drugbank.com/drugs/DB17568|https://www.rcsb.org/ligand/V1Y|https://www.ebi.ac.uk/pdbe-srv/pdbechem/chemicalCompound/show/V1Y|https://precision.fda.gov/uniisearch/srs/unii/31M3WLJ3KG|https://www.bindingdb.org/bind/chemsearch/marvin/MolStructure.jsp?monomerid=185591

>  <LinkName>  (117) 
|ChemSpider|ChEMBL|PubChem|DrugBank|RCSB|PDBe|FDA SRS|BindingDB

>  <lig_pdb_ID>  (117) 
V1Y

>  <pdb_IDs>  (117) 
6xfp

>  <indicationDB>  (117) 


>  <uniprotId>  (117) 


>  <indicationG2P>  (117) 


>  <MW>  (117) 
478.1

>  <HBA>  (117) 
7

>  <HBD>  (117) 
3

>  <NRB>  (117) 
4

>  <TPSA>  (117) 
105.8

>  <LogP>  (117) 
5.9

>  <RoF>  (117) 
1

>  <Melting point>  (117) 
nan

>  <Targets>  (117) 
nan

>  <Kinase families>  (117) 


>  <FDA_approved>  (117) 


$$$$
Bemcentinib
     RDKit          2D

 38 44  0  0  0  0  0  0  0  0999 V2000
   -9.6875   -2.4743    0.0000 C   0  0  0  0  0  0  0  0  0  0  0  0
   -9.5183   -0.9839    0.0000 C   0  0  0  0  0  0  0  0  0  0  0  0
   -8.1430   -0.3852    0.0000 C   0  0  0  0  0  0  0  0  0  0  0  0
   -6.9368   -1.2769    0.0000 C   0  0  0  0  0  0  0  0  0  0  0  0
   -7.1060   -2.7673    0.0000 C   0  0  0  0  0  0  0  0  0  0  0  0
   -8.4813   -3.3660    0.0000 C   0  0  0  0  0  0  0  0  0  0  0  0
   -6.0462   -3.8288    0.0000 C   0  0  0  0  0  0  0  0  0  0  0  0
   -4.5555   -3.6621    0.0000 C   0  0  0  0  0  0  0  0  0  0  0  0
   -3.7564   -2.3926    0.0000 C   0  0  0  0  0  0  0  0  0  0  0  0
   -4.2507   -0.9764    0.0000 C   0  0  0  0  0  0  0  0  0  0  0  0
   -5.6661   -0.4798    0.0000 C   0  0  0  0  0  0  0  0  0  0  0  0
   -5.9438    0.9942    0.0000 N   0  0  0  0  0  0  0  0  0  0  0  0
   -4.8060    1.9717    0.0000 N   0  0  0  0  0  0  0  0  0  0  0  0
   -3.3906    1.4752    0.0000 C   0  0  0  0  0  0  0  0  0  0  0  0
   -3.1129    0.0011    0.0000 C   0  0  0  0  0  0  0  0  0  0  0  0
   -2.2529    2.4527    0.0000 N   0  0  0  0  0  0  0  0  0  0  0  0
   -2.3749    3.9477    0.0000 C   0  0  0  0  0  0  0  0  0  0  0  0
   -0.9908    4.5258    0.0000 N   0  0  0  0  0  0  0  0  0  0  0  0
   -0.0133    3.3880    0.0000 C   0  0  0  0  0  0  0  0  0  0  0  0
   -0.7933    2.1068    0.0000 N   0  0  0  0  0  0  0  0  0  0  0  0
    1.4817    3.5101    0.0000 N   0  0  0  0  0  0  0  0  0  0  0  0
    2.3350    2.2764    0.0000 C   0  0  0  0  0  0  0  0  0  0  0  0
    1.6932    0.9206    0.0000 C   0  0  0  0  0  0  0  0  0  0  0  0
    2.5464   -0.3131    0.0000 C   0  0  0  0  0  0  0  0  0  0  0  0
    4.0414   -0.1910    0.0000 C   0  0  0  0  0  0  0  0  0  0  0  0
    4.6832    1.1648    0.0000 C   0  0  0  0  0  0  0  0  0  0  0  0
    3.8300    2.3985    0.0000 C   0  0  0  0  0  0  0  0  0  0  0  0
    6.1433    1.5083    0.0000 C   0  0  0  0  0  0  0  0  0  0  0  0
    7.3223    0.5809    0.0000 C   0  0  0  0  0  0  0  0  0  0  0  0
    7.3323   -0.9191    0.0000 C   0  0  0  0  0  0  0  0  0  0  0  0
    6.1658   -1.8621    0.0000 C   0  0  0  0  0  0  0  0  0  0  0  0
    4.7012   -1.5381    0.0000 C   0  0  0  0  0  0  0  0  0  0  0  0
    8.6881   -1.5609    0.0000 N   0  0  0  0  0  0  0  0  0  0  0  0
   10.0042   -0.8413    0.0000 C   0  0  0  0  0  0  0  0  0  0  0  0
   11.0953   -1.8706    0.0000 C   0  0  0  0  0  0  0  0  0  0  0  0
   10.4535   -3.2264    0.0000 C   0  0  0  0  0  0  0  0  0  0  0  0
    8.9657   -3.0349    0.0000 C   0  0  0  0  0  0  0  0  0  0  0  0
   -3.6562    4.7277    0.0000 N   0  0  0  0  0  0  0  0  0  0  0  0
  1  2  2  0
  2  3  1  0
  3  4  2  0
  4  5  1  0
  5  6  2  0
  5  7  1  0
  7  8  1  0
  8  9  1  0
  9 10  1  0
 10 11  2  0
 11 12  1  0
 12 13  2  0
 13 14  1  0
 14 15  2  0
 14 16  1  0
 16 17  1  0
 17 18  2  0
 18 19  1  0
 19 20  2  0
 19 21  1  0
 21 22  1  0
 22 23  2  0
 23 24  1  0
 24 25  2  0
 25 26  1  0
 26 27  2  0
 26 28  1  0
 28 29  1  0
 29 30  1  0
 30 31  1  0
 31 32  1  0
 30 33  1  1
 33 34  1  0
 34 35  1  0
 35 36  1  0
 36 37  1  0
 17 38  1  0
  6  1  1  0
  4 11  1  0
 15 10  1  0
 20 16  1  0
 27 22  1  0
 32 25  1  0
 37 33  1  0
M  END
>  <BrandName>  (118) 


>  <Applicants>  (118) 
BerGenBio

>  <CHEMBL_ID>  (118) 
CHEMBL3809489

>  <Canonical_Smiles>  (118) 
c1ccc-2c(c1)CCCc3c2nnc(c3)n4c(nc(n4)Nc5ccc6c(c5)CC[C@H](CC6)N7CCCC7)N

>  <Chirality>  (118) 
Single Stereoisomer

>  <First_Approval>  (118) 
nan

>  <Phase>  (118) 
2.0

>  <SC_Patent>  (118) 
nan

>  <Synonyms>  (118) 
BEMCENTINIB | BGB 324 | BGB-324 | BGB324 | CS-1046 | HY-15150 | KB-80319 | QC-11751 | R 428 | R-428 | R428 | SYN-1131 | SYN1131 | W-5845

>  <Withdrawn>  (118) 
{''}

>  <Indications>  (118) 
nan

>  <Type>  (118) 
nan

>  <targets_id>  (118) 
P30530

>  <Inchi>  (118) 
InChI=1S/C30H34N8/c31-29-33-30(32-24-13-10-20-11-14-25(15-12-22(20)18-24)37-16-3-4-17-37)36-38(29)27-19-23-8-5-7-21-6-1-2-9-26(21)28(23)35-34-27/h1-2,6,9-10,13,18-19,25H,3-5,7-8,11-12,14-17H2,(H3,31,32,33,36)/t25-/m0/s1

>  <stdInchikey>  (118) 
KXMZDGSRSGHMMK-VWLOTQADSA-N

>  <csid>  (118) 
28637805

>  <Links>  (118) 
|http://www.chemspider.com/Chemical-Structure.28637805.html|https://www.ebi.ac.uk/chembldb/compound/inspect/CHEMBL3809489|https://pubchem.ncbi.nlm.nih.gov/compound/46215462|https://go.drugbank.com/drugs/DB12411|https://www.rcsb.org/ligand/Q8U|https://www.ebi.ac.uk/pdbe-srv/pdbechem/chemicalCompound/show/Q8U|https://www.guidetopharmacology.org/GRAC/LigandDisplayForward?10478|https://zinc15.docking.org/substances/ZINC000051951669|https://precision.fda.gov/uniisearch/srs/unii/0ICW2LX8AS|https://www.bindingdb.org/bind/chemsearch/marvin/MolStructure.jsp?monomerid=50172079

>  <LinkName>  (118) 
|ChemSpider|ChEMBL|PubChem|DrugBank|RCSB|PDBe|Guide to Pharmacology|ZINC|FDA SRS|BindingDB

>  <lig_pdb_ID>  (118) 
Q8U

>  <pdb_IDs>  (118) 
8ba3 8ba4

>  <indicationDB>  (118) 


>  <uniprotId>  (118) 


>  <indicationG2P>  (118) 
None

>  <MW>  (118) 
506.3

>  <HBA>  (118) 
8

>  <HBD>  (118) 
2

>  <NRB>  (118) 
4

>  <TPSA>  (118) 
97.8

>  <LogP>  (118) 
4.9

>  <RoF>  (118) 
1

>  <Melting point>  (118) 
nan

>  <Targets>  (118) 
AXL

>  <Kinase families>  (118) 
Tyr

>  <FDA_approved>  (118) 


$$$$
Berzosertib
     RDKit          2D

 33 36  0  0  0  0  0  0  0  0999 V2000
    8.9417   -2.8875    0.0000 C   0  0  0  0  0  0  0  0  0  0  0  0
    7.4874   -3.2551    0.0000 C   0  0  0  0  0  0  0  0  0  0  0  0
    7.0786   -4.6983    0.0000 C   0  0  0  0  0  0  0  0  0  0  0  0
    6.4420   -2.1794    0.0000 S   0  0  0  0  0  0  0  0  0  0  0  0
    7.5177   -1.1340    0.0000 O   0  0  0  0  0  0  0  0  0  0  0  0
    5.3663   -3.2248    0.0000 O   0  0  0  0  0  0  0  0  0  0  0  0
    5.3966   -1.1037    0.0000 C   0  0  0  0  0  0  0  0  0  0  0  0
    3.9423   -1.4713    0.0000 C   0  0  0  0  0  0  0  0  0  0  0  0
    2.8969   -0.3956    0.0000 C   0  0  0  0  0  0  0  0  0  0  0  0
    3.3057    1.0476    0.0000 C   0  0  0  0  0  0  0  0  0  0  0  0
    4.7600    1.4151    0.0000 C   0  0  0  0  0  0  0  0  0  0  0  0
    5.8054    0.3395    0.0000 C   0  0  0  0  0  0  0  0  0  0  0  0
    2.2603    2.1233    0.0000 C   0  0  0  0  0  0  0  0  0  0  0  0
    2.6691    3.5665    0.0000 C   0  0  0  0  0  0  0  0  0  0  0  0
    1.6236    4.6421    0.0000 N   0  0  0  0  0  0  0  0  0  0  0  0
    0.1694    4.2746    0.0000 C   0  0  0  0  0  0  0  0  0  0  0  0
   -0.2395    2.8314    0.0000 C   0  0  0  0  0  0  0  0  0  0  0  0
    0.8060    1.7557    0.0000 N   0  0  0  0  0  0  0  0  0  0  0  0
   -1.6937    2.4638    0.0000 C   0  0  0  0  0  0  0  0  0  0  0  0
   -2.2512    1.0713    0.0000 C   0  0  0  0  0  0  0  0  0  0  0  0
   -3.7479    1.1711    0.0000 C   0  0  0  0  0  0  0  0  0  0  0  0
   -4.1154    2.6254    0.0000 N   0  0  0  0  0  0  0  0  0  0  0  0
   -2.8459    3.4243    0.0000 O   0  0  0  0  0  0  0  0  0  0  0  0
   -4.7084    0.0190    0.0000 C   0  0  0  0  0  0  0  0  0  0  0  0
   -6.1864    0.2747    0.0000 C   0  0  0  0  0  0  0  0  0  0  0  0
   -7.1469   -0.8774    0.0000 C   0  0  0  0  0  0  0  0  0  0  0  0
   -6.6294   -2.2853    0.0000 C   0  0  0  0  0  0  0  0  0  0  0  0
   -5.1513   -2.5411    0.0000 C   0  0  0  0  0  0  0  0  0  0  0  0
   -4.1908   -1.3889    0.0000 C   0  0  0  0  0  0  0  0  0  0  0  0
   -7.5898   -3.4375    0.0000 C   0  0  0  0  0  0  0  0  0  0  0  0
   -9.0679   -3.1817    0.0000 N   0  0  0  0  0  0  0  0  0  0  0  0
  -10.0284   -4.3339    0.0000 C   0  0  0  0  0  0  0  0  0  0  0  0
   -0.8761    5.3503    0.0000 N   0  0  0  0  0  0  0  0  0  0  0  0
  1  2  1  0
  2  3  1  0
  2  4  1  0
  4  5  2  0
  4  6  2  0
  4  7  1  0
  7  8  2  0
  8  9  1  0
  9 10  2  0
 10 11  1  0
 11 12  2  0
 10 13  1  0
 13 14  2  0
 14 15  1  0
 15 16  2  0
 16 17  1  0
 17 18  2  0
 17 19  1  0
 19 20  2  0
 20 21  1  0
 21 22  2  0
 22 23  1  0
 21 24  1  0
 24 25  2  0
 25 26  1  0
 26 27  2  0
 27 28  1  0
 28 29  2  0
 27 30  1  0
 30 31  1  0
 31 32  1  0
 16 33  1  0
 12  7  1  0
 18 13  1  0
 23 19  1  0
 29 24  1  0
M  END
>  <BrandName>  (119) 


>  <Applicants>  (119) 
Vertex Pharmaceuticals

>  <CHEMBL_ID>  (119) 
CHEMBL3989870

>  <Canonical_Smiles>  (119) 
CC(C)S(=O)(=O)c1ccc(cc1)c2cnc(c(n2)c3cc(no3)c4ccc(cc4)CNC)N

>  <Chirality>  (119) 
Achiral Molecule

>  <First_Approval>  (119) 
nan

>  <Phase>  (119) 
2.0

>  <SC_Patent>  (119) 
nan

>  <Synonyms>  (119) 
BERZOSERTIB | M-6620 | M6620 | VE-822 | VX-970 | VX970

>  <Withdrawn>  (119) 
{''}

>  <Indications>  (119) 
nan

>  <Type>  (119) 
nan

>  <targets_id>  (119) 
nan

>  <Inchi>  (119) 
InChI=1S/C24H25N5O3S/c1-15(2)33(30,31)19-10-8-18(9-11-19)21-14-27-24(25)23(28-21)22-12-20(29-32-22)17-6-4-16(5-7-17)13-26-3/h4-12,14-15,26H,13H2,1-3H3,(H2,25,27)

>  <stdInchikey>  (119) 
JZCWLJDSIRUGIN-UHFFFAOYSA-N

>  <csid>  (119) 
30773968

>  <Links>  (119) 
|http://www.chemspider.com/Chemical-Structure.30773968.html|https://www.ebi.ac.uk/chembldb/compound/inspect/CHEMBL3989870|https://pubchem.ncbi.nlm.nih.gov/compound/59472121|https://go.drugbank.com/drugs/DB11794|https://www.guidetopharmacology.org/GRAC/LigandDisplayForward?8003|https://zinc15.docking.org/substances/ZINC000096170459|https://precision.fda.gov/uniisearch/srs/unii/L423PRV3V3|https://www.bindingdb.org/bind/chemsearch/marvin/MolStructure.jsp?monomerid=350085

>  <LinkName>  (119) 
|ChemSpider|ChEMBL|PubChem|DrugBank|Guide to Pharmacology|ZINC|FDA SRS|BindingDB

>  <lig_pdb_ID>  (119) 


>  <pdb_IDs>  (119) 


>  <indicationDB>  (119) 


>  <uniprotId>  (119) 


>  <indicationG2P>  (119) 
None

>  <MW>  (119) 
463.2

>  <HBA>  (119) 
8

>  <HBD>  (119) 
2

>  <NRB>  (119) 
7

>  <TPSA>  (119) 
124.0

>  <LogP>  (119) 
3.9

>  <RoF>  (119) 
0

>  <Melting point>  (119) 
nan

>  <Targets>  (119) 
nan

>  <Kinase families>  (119) 


>  <FDA_approved>  (119) 


$$$$
Eganelisib
     RDKit          2D

 40 45  0  0  0  0  0  0  0  0999 V2000
   -1.7560    1.9160    0.0000 C   0  0  0  0  0  0  0  0  0  0  0  0
   -1.7163    0.4165    0.0000 C   0  0  0  0  0  0  0  0  0  0  0  0
   -0.3978   -0.2989    0.0000 C   0  0  0  0  0  0  0  0  0  0  0  0
   -0.3581   -1.7983    0.0000 C   0  0  0  0  0  0  0  0  0  0  0  0
    0.9603   -2.5137    0.0000 C   0  0  0  0  0  0  0  0  0  0  0  0
    1.0000   -4.0131    0.0000 C   0  0  0  0  0  0  0  0  0  0  0  0
    2.3185   -4.7285    0.0000 C   0  0  0  0  0  0  0  0  0  0  0  0
    3.5972   -3.9444    0.0000 C   0  0  0  0  0  0  0  0  0  0  0  0
    3.5575   -2.4449    0.0000 C   0  0  0  0  0  0  0  0  0  0  0  0
    2.2390   -1.7295    0.0000 C   0  0  0  0  0  0  0  0  0  0  0  0
    2.1993   -0.2301    0.0000 C   0  0  0  0  0  0  0  0  0  0  0  0
    3.4780    0.5541    0.0000 O   0  0  0  0  0  0  0  0  0  0  0  0
    0.8809    0.4853    0.0000 N   0  0  0  0  0  0  0  0  0  0  0  0
    0.8412    1.9848    0.0000 C   0  0  0  0  0  0  0  0  0  0  0  0
    2.1199    2.7689    0.0000 C   0  0  0  0  0  0  0  0  0  0  0  0
    2.0802    4.2684    0.0000 C   0  0  0  0  0  0  0  0  0  0  0  0
    0.7617    4.9837    0.0000 C   0  0  0  0  0  0  0  0  0  0  0  0
   -0.5170    4.1996    0.0000 C   0  0  0  0  0  0  0  0  0  0  0  0
   -0.4773    2.7001    0.0000 C   0  0  0  0  0  0  0  0  0  0  0  0
    4.8362   -1.6607    0.0000 C   0  0  0  0  0  0  0  0  0  0  0  0
    6.1149   -0.8766    0.0000 C   0  0  0  0  0  0  0  0  0  0  0  0
    7.3937   -0.0925    0.0000 C   0  0  0  0  0  0  0  0  0  0  0  0
    7.5109    1.4029    0.0000 C   0  0  0  0  0  0  0  0  0  0  0  0
    8.9693    1.7535    0.0000 N   0  0  0  0  0  0  0  0  0  0  0  0
    9.7535    0.4748    0.0000 N   0  0  0  0  0  0  0  0  0  0  0  0
    8.7796   -0.6661    0.0000 C   0  0  0  0  0  0  0  0  0  0  0  0
   11.2489    0.3576    0.0000 C   0  0  0  0  0  0  0  0  0  0  0  0
   -2.9950   -0.3676    0.0000 N   0  0  0  0  0  0  0  0  0  0  0  0
   -4.3134    0.3477    0.0000 C   0  0  0  0  0  0  0  0  0  0  0  0
   -4.3532    1.8472    0.0000 O   0  0  0  0  0  0  0  0  0  0  0  0
   -5.5922   -0.4364    0.0000 C   0  0  0  0  0  0  0  0  0  0  0  0
   -5.7094   -1.9319    0.0000 C   0  0  0  0  0  0  0  0  0  0  0  0
   -7.1679   -2.2825    0.0000 N   0  0  0  0  0  0  0  0  0  0  0  0
   -7.9520   -1.0037    0.0000 N   0  0  0  0  0  0  0  0  0  0  0  0
   -6.9782    0.1372    0.0000 C   0  0  0  0  0  0  0  0  0  0  0  0
   -7.4793    1.5510    0.0000 N   0  0  0  0  0  0  0  0  0  0  0  0
   -8.9543    1.8239    0.0000 C   0  0  0  0  0  0  0  0  0  0  0  0
   -9.9281    0.6830    0.0000 C   0  0  0  0  0  0  0  0  0  0  0  0
   -9.4270   -0.7308    0.0000 C   0  0  0  0  0  0  0  0  0  0  0  0
   -4.5685   -2.9057    0.0000 N   0  0  0  0  0  0  0  0  0  0  0  0
  2  1  1  1
  2  3  1  0
  3  4  2  0
  4  5  1  0
  5  6  2  0
  6  7  1  0
  7  8  2  0
  8  9  1  0
  9 10  2  0
 10 11  1  0
 11 12  2  0
 11 13  1  0
 13 14  1  0
 14 15  2  0
 15 16  1  0
 16 17  2  0
 17 18  1  0
 18 19  2  0
  9 20  1  0
 20 21  3  0
 21 22  1  0
 22 23  1  0
 23 24  2  0
 24 25  1  0
 25 26  1  0
 25 27  1  0
  2 28  1  0
 28 29  1  0
 29 30  2  0
 29 31  1  0
 31 32  1  0
 32 33  2  0
 33 34  1  0
 34 35  1  0
 35 36  1  0
 36 37  2  0
 37 38  1  0
 38 39  2  0
 32 40  1  0
 13  3  1  0
 10  5  1  0
 19 14  1  0
 26 22  2  0
 35 31  2  0
 39 34  1  0
M  END
>  <BrandName>  (120) 


>  <Applicants>  (120) 
Intellikine

>  <CHEMBL_ID>  (120) 
CHEMBL3984425

>  <Canonical_Smiles>  (120) 
C[C@@H](c1cc2cccc(c2c(=O)n1c3ccccc3)C#Cc4cnn(c4)C)NC(=O)c5c(nn6c5nccc6)N

>  <Chirality>  (120) 
Single Stereoisomer

>  <First_Approval>  (120) 
nan

>  <Phase>  (120) 
2.0

>  <SC_Patent>  (120) 
nan

>  <Synonyms>  (120) 
EGANELISIB | IPI-549 | PI3K-GAMMA INHIBITOR IPI-549

>  <Withdrawn>  (120) 
{''}

>  <Indications>  (120) 
nan

>  <Type>  (120) 
nan

>  <targets_id>  (120) 
nan

>  <Inchi>  (120) 
InChI=1S/C30H24N8O2/c1-19(34-29(39)26-27(31)35-37-15-7-14-32-28(26)37)24-16-22-9-6-8-21(13-12-20-17-33-36(2)18-20)25(22)30(40)38(24)23-10-4-3-5-11-23/h3-11,14-19H,1-2H3,(H2,31,35)(H,34,39)/t19-/m0/s1

>  <stdInchikey>  (120) 
XUMALORDVCFWKV-IBGZPJMESA-N

>  <csid>  (120) 
60600433

>  <Links>  (120) 
|http://www.chemspider.com/Chemical-Structure.60600433.html|https://www.ebi.ac.uk/chembldb/compound/inspect/CHEMBL3984425|https://pubchem.ncbi.nlm.nih.gov/compound/91933883|https://go.drugbank.com/drugs/DB16296|https://www.rcsb.org/ligand/V7Y|https://www.ebi.ac.uk/pdbe-srv/pdbechem/chemicalCompound/show/V7Y|https://www.guidetopharmacology.org/GRAC/LigandDisplayForward?9563|https://zinc15.docking.org/substances/ZINC000584906867|https://precision.fda.gov/uniisearch/srs/unii/FOF5155FMZ|https://www.bindingdb.org/bind/chemsearch/marvin/MolStructure.jsp?monomerid=50192880

>  <LinkName>  (120) 
|ChemSpider|ChEMBL|PubChem|DrugBank|RCSB|PDBe|Guide to Pharmacology|ZINC|FDA SRS|BindingDB

>  <lig_pdb_ID>  (120) 
V7Y

>  <pdb_IDs>  (120) 
6xrl 7jwz

>  <indicationDB>  (120) 


>  <uniprotId>  (120) 


>  <indicationG2P>  (120) 
None

>  <MW>  (120) 
528.2

>  <HBA>  (120) 
9

>  <HBD>  (120) 
2

>  <NRB>  (120) 
4

>  <TPSA>  (120) 
125.1

>  <LogP>  (120) 
3.2

>  <RoF>  (120) 
1

>  <Melting point>  (120) 
nan

>  <Targets>  (120) 
nan

>  <Kinase families>  (120) 


>  <FDA_approved>  (120) 


$$$$
Branebrutinib
     RDKit          2D

 27 29  0  0  0  0  0  0  0  0999 V2000
    9.2550    2.1525    0.0000 C   0  0  0  0  0  0  0  0  0  0  0  0
    7.9853    1.3538    0.0000 C   0  0  0  0  0  0  0  0  0  0  0  0
    6.7157    0.5551    0.0000 C   0  0  0  0  0  0  0  0  0  0  0  0
    5.4460   -0.2437    0.0000 C   0  0  0  0  0  0  0  0  0  0  0  0
    5.5029   -1.7426    0.0000 O   0  0  0  0  0  0  0  0  0  0  0  0
    4.1195    0.4565    0.0000 N   0  0  0  0  0  0  0  0  0  0  0  0
    2.8498   -0.3422    0.0000 C   0  0  0  0  0  0  0  0  0  0  0  0
    2.9067   -1.8411    0.0000 C   0  0  0  0  0  0  0  0  0  0  0  0
    1.6370   -2.6398    0.0000 C   0  0  0  0  0  0  0  0  0  0  0  0
    0.3105   -1.9396    0.0000 C   0  0  0  0  0  0  0  0  0  0  0  0
    0.2536   -0.4407    0.0000 N   0  0  0  0  0  0  0  0  0  0  0  0
    1.5233    0.3580    0.0000 C   0  0  0  0  0  0  0  0  0  0  0  0
   -1.0729    0.2595    0.0000 C   0  0  0  0  0  0  0  0  0  0  0  0
   -1.1298    1.7584    0.0000 C   0  0  0  0  0  0  0  0  0  0  0  0
   -2.4564    2.4586    0.0000 C   0  0  0  0  0  0  0  0  0  0  0  0
   -3.7260    1.6599    0.0000 C   0  0  0  0  0  0  0  0  0  0  0  0
   -3.6692    0.1610    0.0000 C   0  0  0  0  0  0  0  0  0  0  0  0
   -2.3426   -0.5392    0.0000 C   0  0  0  0  0  0  0  0  0  0  0  0
   -2.5986   -2.0172    0.0000 C   0  0  0  0  0  0  0  0  0  0  0  0
   -4.0834   -2.2305    0.0000 C   0  0  0  0  0  0  0  0  0  0  0  0
   -4.7450   -0.8843    0.0000 N   0  0  0  0  0  0  0  0  0  0  0  0
   -4.7836   -3.5570    0.0000 C   0  0  0  0  0  0  0  0  0  0  0  0
   -1.5534   -3.0931    0.0000 C   0  0  0  0  0  0  0  0  0  0  0  0
   -5.0526    2.3601    0.0000 C   0  0  0  0  0  0  0  0  0  0  0  0
   -6.3222    1.5614    0.0000 O   0  0  0  0  0  0  0  0  0  0  0  0
   -5.1095    3.8590    0.0000 N   0  0  0  0  0  0  0  0  0  0  0  0
    0.1398    2.5571    0.0000 F   0  0  0  0  0  0  0  0  0  0  0  0
  1  2  1  0
  2  3  3  0
  3  4  1  0
  4  5  2  0
  4  6  1  0
  7  6  1  1
  7  8  1  0
  8  9  1  0
  9 10  1  0
 10 11  1  0
 11 12  1  0
 11 13  1  0
 13 14  2  0
 14 15  1  0
 15 16  2  0
 16 17  1  0
 17 18  2  0
 18 19  1  0
 19 20  2  0
 20 21  1  0
 20 22  1  0
 19 23  1  0
 16 24  1  0
 24 25  2  0
 24 26  1  0
 14 27  1  0
 12  7  1  0
 18 13  1  0
 21 17  1  0
M  END
>  <BrandName>  (121) 


>  <Applicants>  (121) 
Bristol Myers Squibb

>  <CHEMBL_ID>  (121) 
CHEMBL4297674

>  <Canonical_Smiles>  (121) 
CC#CC(=O)N[C@H]1CCCN(C1)c2c(cc(c3c2c(c([nH]3)C)C)C(=O)N)F

>  <Chirality>  (121) 
Single Stereoisomer

>  <First_Approval>  (121) 
nan

>  <Phase>  (121) 
2.0

>  <SC_Patent>  (121) 
nan

>  <Synonyms>  (121) 
BMS-986195 | BRANEBRUTINIB

>  <Withdrawn>  (121) 
{''}

>  <Indications>  (121) 
nan

>  <Type>  (121) 
nan

>  <targets_id>  (121) 
nan

>  <Inchi>  (121) 
InChI=1S/C20H23FN4O2/c1-4-6-16(26)24-13-7-5-8-25(10-13)19-15(21)9-14(20(22)27)18-17(19)11(2)12(3)23-18/h9,13,23H,5,7-8,10H2,1-3H3,(H2,22,27)(H,24,26)/t13-/m0/s1

>  <stdInchikey>  (121) 
VJPPLCNBDLZIFG-ZDUSSCGKSA-N

>  <csid>  (121) 
64835069

>  <Links>  (121) 
|http://www.chemspider.com/Chemical-Structure.64835069.html|https://www.ebi.ac.uk/chembldb/compound/inspect/CHEMBL4297674|https://pubchem.ncbi.nlm.nih.gov/compound/121293929|https://go.drugbank.com/drugs/DB15347|https://www.guidetopharmacology.org/GRAC/LigandDisplayForward?9869|https://precision.fda.gov/uniisearch/srs/unii/7LBRZUYSHU

>  <LinkName>  (121) 
|ChemSpider|ChEMBL|PubChem|DrugBank|Guide to Pharmacology|FDA SRS

>  <lig_pdb_ID>  (121) 


>  <pdb_IDs>  (121) 


>  <indicationDB>  (121) 


>  <uniprotId>  (121) 


>  <indicationG2P>  (121) 
None

>  <MW>  (121) 
370.2

>  <HBA>  (121) 
3

>  <HBD>  (121) 
3

>  <NRB>  (121) 
3

>  <TPSA>  (121) 
91.2

>  <LogP>  (121) 
2.1

>  <RoF>  (121) 
0

>  <Melting point>  (121) 
nan

>  <Targets>  (121) 
nan

>  <Kinase families>  (121) 


>  <FDA_approved>  (121) 


$$$$
Culmerciclib
     RDKit          2D

 33 37  0  0  0  0  0  0  0  0999 V2000
   -0.6077    4.6510    0.0000 C   0  0  0  0  0  0  0  0  0  0  0  0
    0.1086    3.3331    0.0000 C   0  0  0  0  0  0  0  0  0  0  0  0
   -0.6745    2.0537    0.0000 C   0  0  0  0  0  0  0  0  0  0  0  0
    1.6081    3.2945    0.0000 C   0  0  0  0  0  0  0  0  0  0  0  0
    2.4583    2.0587    0.0000 C   0  0  0  0  0  0  0  0  0  0  0  0
    2.1088    0.5999    0.0000 C   0  0  0  0  0  0  0  0  0  0  0  0
    3.1973   -0.4321    0.0000 C   0  0  0  0  0  0  0  0  0  0  0  0
    2.8478   -1.8908    0.0000 C   0  0  0  0  0  0  0  0  0  0  0  0
    1.4098   -2.3175    0.0000 N   0  0  0  0  0  0  0  0  0  0  0  0
    1.0602   -3.7762    0.0000 C   0  0  0  0  0  0  0  0  0  0  0  0
   -0.3778   -4.2029    0.0000 N   0  0  0  0  0  0  0  0  0  0  0  0
   -1.4663   -3.1708    0.0000 C   0  0  0  0  0  0  0  0  0  0  0  0
   -1.1168   -1.7121    0.0000 C   0  0  0  0  0  0  0  0  0  0  0  0
   -2.2053   -0.6801    0.0000 C   0  0  0  0  0  0  0  0  0  0  0  0
   -3.6434   -1.1067    0.0000 C   0  0  0  0  0  0  0  0  0  0  0  0
   -4.7319   -0.0747    0.0000 N   0  0  0  0  0  0  0  0  0  0  0  0
   -4.3824    1.3840    0.0000 C   0  0  0  0  0  0  0  0  0  0  0  0
   -5.4709    2.4161    0.0000 C   0  0  0  0  0  0  0  0  0  0  0  0
   -6.9089    1.9894    0.0000 N   0  0  0  0  0  0  0  0  0  0  0  0
   -7.2585    0.5307    0.0000 C   0  0  0  0  0  0  0  0  0  0  0  0
   -6.1699   -0.5013    0.0000 C   0  0  0  0  0  0  0  0  0  0  0  0
   -3.9929   -2.5654    0.0000 C   0  0  0  0  0  0  0  0  0  0  0  0
   -2.9044   -3.5975    0.0000 N   0  0  0  0  0  0  0  0  0  0  0  0
    2.1488   -4.8082    0.0000 N   0  0  0  0  0  0  0  0  0  0  0  0
    3.5868   -4.3816    0.0000 C   0  0  0  0  0  0  0  0  0  0  0  0
    3.9363   -2.9229    0.0000 C   0  0  0  0  0  0  0  0  0  0  0  0
    5.3744   -2.4962    0.0000 F   0  0  0  0  0  0  0  0  0  0  0  0
    4.6354   -0.0054    0.0000 C   0  0  0  0  0  0  0  0  0  0  0  0
    4.9849    1.4533    0.0000 C   0  0  0  0  0  0  0  0  0  0  0  0
    3.8963    2.4853    0.0000 C   0  0  0  0  0  0  0  0  0  0  0  0
    3.9349    3.9848    0.0000 N   0  0  0  0  0  0  0  0  0  0  0  0
    2.5207    4.4849    0.0000 N   0  0  0  0  0  0  0  0  0  0  0  0
    2.0941    5.9229    0.0000 C   0  0  0  0  0  0  0  0  0  0  0  0
  1  2  1  0
  2  3  1  0
  2  4  1  0
  4  5  2  0
  5  6  1  0
  6  7  2  0
  7  8  1  0
  8  9  2  0
  9 10  1  0
 10 11  1  0
 11 12  1  0
 12 13  2  0
 13 14  1  0
 14 15  2  0
 15 16  1  0
 16 17  1  0
 17 18  1  0
 18 19  1  0
 19 20  1  0
 20 21  1  0
 15 22  1  0
 22 23  2  0
 10 24  2  0
 24 25  1  0
 25 26  2  0
 26 27  1  0
  7 28  1  0
 28 29  2  0
 29 30  1  0
 30 31  2  0
 31 32  1  0
 32 33  1  0
 32  4  1  0
 30  5  1  0
 26  8  1  0
 23 12  1  0
 21 16  1  0
M  END
>  <BrandName>  (122) 


>  <Applicants>  (122) 
Nanjing Mingde New Drug Research and Development Company

>  <CHEMBL_ID>  (122) 
CHEMBL5095094

>  <Canonical_Smiles>  (122) 
CC(C)c1c2cc(-c3nc(Nc4ccc(N5CCNCC5)cn4)ncc3F)ccc2nn1C

>  <Chirality>  (122) 
Achiral Molecule

>  <First_Approval>  (122) 
nan

>  <Phase>  (122) 
2.0

>  <SC_Patent>  (122) 
nan

>  <Synonyms>  (122) 
CULMERCICLIB

>  <Withdrawn>  (122) 
nan

>  <Indications>  (122) 
nan

>  <Type>  (122) 
nan

>  <targets_id>  (122) 
nan

>  <Inchi>  (122) 
InChI=1S/C24H27FN8/c1-15(2)23-18-12-16(4-6-20(18)31-32(23)3)22-19(25)14-28-24(30-22)29-21-7-5-17(13-27-21)33-10-8-26-9-11-33/h4-7,12-15,26H,8-11H2,1-3H3,(H,27,28,29,30)

>  <stdInchikey>  (122) 
LLFOBMRPWNABCB-UHFFFAOYSA-N

>  <csid>  (122) 


>  <Links>  (122) 
|http://www.chemspider.com/Chemical-Structure..html|https://www.ebi.ac.uk/chembldb/compound/inspect/CHEMBL5095094|https://pubchem.ncbi.nlm.nih.gov/compound/122544510

>  <LinkName>  (122) 
|ChemSpider|ChEMBL|PubChem

>  <lig_pdb_ID>  (122) 


>  <pdb_IDs>  (122) 


>  <indicationDB>  (122) 


>  <uniprotId>  (122) 


>  <indicationG2P>  (122) 


>  <MW>  (122) 
446.2

>  <HBA>  (122) 
8

>  <HBD>  (122) 
2

>  <NRB>  (122) 
5

>  <TPSA>  (122) 
83.8

>  <LogP>  (122) 
3.8

>  <RoF>  (122) 
0

>  <Melting point>  (122) 
nan

>  <Targets>  (122) 
nan

>  <Kinase families>  (122) 


>  <FDA_approved>  (122) 


$$$$
Boditrectinib
     RDKit          2D

 32 36  0  0  0  0  0  0  0  0999 V2000
   -5.0137    2.2976    0.0000 O   0  0  0  0  0  0  0  0  0  0  0  0
   -5.4328    0.8574    0.0000 C   0  0  0  0  0  0  0  0  0  0  0  0
   -4.3951   -0.2257    0.0000 C   0  0  0  0  0  0  0  0  0  0  0  0
   -2.9382    0.1314    0.0000 C   0  0  0  0  0  0  0  0  0  0  0  0
   -1.9005   -0.9516    0.0000 C   0  0  0  0  0  0  0  0  0  0  0  0
   -2.1667   -2.4278    0.0000 C   0  0  0  0  0  0  0  0  0  0  0  0
   -0.8451   -3.1372    0.0000 N   0  0  0  0  0  0  0  0  0  0  0  0
    0.2380   -2.0995    0.0000 N   0  0  0  0  0  0  0  0  0  0  0  0
    1.7339   -2.2100    0.0000 C   0  0  0  0  0  0  0  0  0  0  0  0
    2.5776   -0.9698    0.0000 C   0  0  0  0  0  0  0  0  0  0  0  0
    1.9253    0.3810    0.0000 C   0  0  0  0  0  0  0  0  0  0  0  0
    2.7690    1.6213    0.0000 N   0  0  0  0  0  0  0  0  0  0  0  0
    2.2615    3.0328    0.0000 C   0  0  0  0  0  0  0  0  0  0  0  0
    3.4472    3.9516    0.0000 C   0  0  0  0  0  0  0  0  0  0  0  0
    4.6874    3.1080    0.0000 C   0  0  0  0  0  0  0  0  0  0  0  0
    4.2683    1.6677    0.0000 C   0  0  0  0  0  0  0  0  0  0  0  0
    5.1871    0.4821    0.0000 C   0  0  0  0  0  0  0  0  0  0  0  0
    4.6198   -0.9065    0.0000 C   0  0  0  0  0  0  0  0  0  0  0  0
    5.5386   -2.0921    0.0000 C   0  0  0  0  0  0  0  0  0  0  0  0
    4.9712   -3.4807    0.0000 F   0  0  0  0  0  0  0  0  0  0  0  0
    7.0248   -1.8892    0.0000 C   0  0  0  0  0  0  0  0  0  0  0  0
    7.5922   -0.5006    0.0000 C   0  0  0  0  0  0  0  0  0  0  0  0
    6.6733    0.6850    0.0000 C   0  0  0  0  0  0  0  0  0  0  0  0
    7.2407    2.0736    0.0000 F   0  0  0  0  0  0  0  0  0  0  0  0
    0.4294    0.4915    0.0000 N   0  0  0  0  0  0  0  0  0  0  0  0
   -0.4143   -0.7487    0.0000 C   0  0  0  0  0  0  0  0  0  0  0  0
   -6.8897    0.5002    0.0000 N   0  0  0  0  0  0  0  0  0  0  0  0
   -7.9274    1.5833    0.0000 C   0  0  0  0  0  0  0  0  0  0  0  0
   -9.3843    1.2262    0.0000 C   0  0  0  0  0  0  0  0  0  0  0  0
   -9.8034   -0.2141    0.0000 N   0  0  0  0  0  0  0  0  0  0  0  0
   -8.7656   -1.2972    0.0000 C   0  0  0  0  0  0  0  0  0  0  0  0
   -7.3088   -0.9400    0.0000 C   0  0  0  0  0  0  0  0  0  0  0  0
  1  2  2  0
  2  3  1  0
  3  4  2  0
  4  5  1  0
  5  6  1  0
  6  7  2  0
  7  8  1  0
  8  9  1  0
  9 10  2  0
 10 11  1  0
 11 12  1  0
 12 13  1  0
 13 14  1  0
 14 15  1  0
 15 16  1  0
 16 17  1  6
 17 18  2  0
 18 19  1  0
 19 20  1  0
 19 21  2  0
 21 22  1  0
 22 23  2  0
 23 24  1  0
 11 25  2  0
 25 26  1  0
  2 27  1  0
 27 28  1  0
 28 29  1  0
 29 30  1  0
 30 31  1  0
 31 32  1  0
 26  5  2  0
 32 27  1  0
 26  8  1  0
 16 12  1  0
 23 17  1  0
M  END
>  <BrandName>  (123) 


>  <Applicants>  (123) 
('',)

>  <CHEMBL_ID>  (123) 
CHEMBL5314454

>  <Canonical_Smiles>  (123) 
O=C(/C=C/c1cnn2ccc(N3CCC[C@@H]3c3cc(F)ccc3F)nc12)N1CCNCC1

>  <Chirality>  (123) 
Unknown

>  <First_Approval>  (123) 
nan

>  <Phase>  (123) 
2.0

>  <SC_Patent>  (123) 
nan

>  <Synonyms>  (123) 
AUM-601 | AUM601 | BODITRECTINIB | CHC-2014 | CHC2014 | HL-5101 | HL5101 | NOV-1601 | NOV1601

>  <Withdrawn>  (123) 
nan

>  <Indications>  (123) 
nan

>  <Type>  (123) 
nan

>  <targets_id>  (123) 
nan

>  <Inchi>  (123) 
InChI=1S/C23H24F2N6O/c24-17-4-5-19(25)18(14-17)20-2-1-10-30(20)21-7-11-31-23(28-21)16(15-27-31)3-6-22(32)29-12-8-26-9-13-29/h3-7,11,14-15,20,26H,1-2,8-10,12-13H2/b6-3+/t20-/m1/s1

>  <stdInchikey>  (123) 
BQFYCHBYISNPFW-SQZHUTIHSA-N

>  <csid>  (123) 
128921741

>  <Links>  (123) 
|http://www.chemspider.com/Chemical-Structure.128921741.html|https://www.ebi.ac.uk/chembldb/compound/inspect/CHEMBL5314454|https://pubchem.ncbi.nlm.nih.gov/compound/121395201

>  <LinkName>  (123) 
|ChemSpider|ChEMBL|PubChem

>  <lig_pdb_ID>  (123) 


>  <pdb_IDs>  (123) 


>  <indicationDB>  (123) 


>  <uniprotId>  (123) 


>  <indicationG2P>  (123) 


>  <MW>  (123) 
438.2

>  <HBA>  (123) 
6

>  <HBD>  (123) 
1

>  <NRB>  (123) 
4

>  <TPSA>  (123) 
65.8

>  <LogP>  (123) 
2.8

>  <RoF>  (123) 
0

>  <Melting point>  (123) 
nan

>  <Targets>  (123) 
nan

>  <Kinase families>  (123) 


>  <FDA_approved>  (123) 


$$$$
Inixaciclib
     RDKit          2D

 35 39  0  0  0  0  0  0  0  0999 V2000
   -1.2753    3.6039    0.0000 C   0  0  0  0  0  0  0  0  0  0  0  0
   -0.1404    2.6231    0.0000 C   0  0  0  0  0  0  0  0  0  0  0  0
   -0.4224    1.1499    0.0000 C   0  0  0  0  0  0  0  0  0  0  0  0
    1.2764    3.1156    0.0000 N   0  0  0  0  0  0  0  0  0  0  0  0
    1.5584    4.5889    0.0000 C   0  0  0  0  0  0  0  0  0  0  0  0
    2.9752    5.0814    0.0000 C   0  0  0  0  0  0  0  0  0  0  0  0
    4.1101    4.1006    0.0000 O   0  0  0  0  0  0  0  0  0  0  0  0
    3.8282    2.6273    0.0000 C   0  0  0  0  0  0  0  0  0  0  0  0
    4.9631    1.6465    0.0000 C   0  0  0  0  0  0  0  0  0  0  0  0
    6.3800    2.1390    0.0000 F   0  0  0  0  0  0  0  0  0  0  0  0
    4.6812    0.1732    0.0000 C   0  0  0  0  0  0  0  0  0  0  0  0
    3.2643   -0.3192    0.0000 C   0  0  0  0  0  0  0  0  0  0  0  0
    2.9824   -1.7925    0.0000 C   0  0  0  0  0  0  0  0  0  0  0  0
    1.5655   -2.2850    0.0000 N   0  0  0  0  0  0  0  0  0  0  0  0
    1.2836   -3.7582    0.0000 C   0  0  0  0  0  0  0  0  0  0  0  0
   -0.1332   -4.2507    0.0000 N   0  0  0  0  0  0  0  0  0  0  0  0
   -1.2682   -3.2699    0.0000 C   0  0  0  0  0  0  0  0  0  0  0  0
   -0.9862   -1.7967    0.0000 C   0  0  0  0  0  0  0  0  0  0  0  0
   -2.1211   -0.8159    0.0000 C   0  0  0  0  0  0  0  0  0  0  0  0
   -3.5380   -1.3083    0.0000 C   0  0  0  0  0  0  0  0  0  0  0  0
   -4.6729   -0.3275    0.0000 C   0  0  0  0  0  0  0  0  0  0  0  0
   -4.3910    1.1457    0.0000 C   0  0  0  0  0  0  0  0  0  0  0  0
   -5.5259    2.1265    0.0000 C   0  0  0  0  0  0  0  0  0  0  0  0
   -6.9428    1.6341    0.0000 N   0  0  0  0  0  0  0  0  0  0  0  0
   -8.0777    2.6149    0.0000 C   0  0  0  0  0  0  0  0  0  0  0  0
   -7.2247    0.1608    0.0000 C   0  0  0  0  0  0  0  0  0  0  0  0
   -6.0898   -0.8200    0.0000 C   0  0  0  0  0  0  0  0  0  0  0  0
   -3.8199   -2.7816    0.0000 C   0  0  0  0  0  0  0  0  0  0  0  0
   -2.6850   -3.7624    0.0000 N   0  0  0  0  0  0  0  0  0  0  0  0
    2.4185   -4.7390    0.0000 N   0  0  0  0  0  0  0  0  0  0  0  0
    3.8354   -4.2466    0.0000 C   0  0  0  0  0  0  0  0  0  0  0  0
    4.1173   -2.7733    0.0000 C   0  0  0  0  0  0  0  0  0  0  0  0
    5.5342   -2.2808    0.0000 F   0  0  0  0  0  0  0  0  0  0  0  0
    2.1294    0.6616    0.0000 C   0  0  0  0  0  0  0  0  0  0  0  0
    2.4113    2.1348    0.0000 C   0  0  0  0  0  0  0  0  0  0  0  0
  1  2  1  0
  2  3  1  0
  2  4  1  0
  4  5  1  0
  5  6  1  0
  6  7  1  0
  7  8  1  0
  8  9  2  0
  9 10  1  0
  9 11  1  0
 11 12  2  0
 12 13  1  0
 13 14  2  0
 14 15  1  0
 15 16  1  0
 16 17  1  0
 17 18  2  0
 18 19  1  0
 19 20  2  0
 20 21  1  0
 21 22  1  0
 22 23  1  0
 23 24  1  0
 24 25  1  0
 24 26  1  0
 26 27  1  0
 20 28  1  0
 28 29  2  0
 15 30  2  0
 30 31  1  0
 31 32  2  0
 32 33  1  0
 12 34  1  0
 34 35  2  0
 35  4  1  0
 35  8  1  0
 32 13  1  0
 29 17  1  0
 27 21  1  0
M  END
>  <BrandName>  (124) 


>  <Applicants>  (124) 
GiraFPharma

>  <CHEMBL_ID>  (124) 
CHEMBL5095102

>  <Canonical_Smiles>  (124) 
CC(C)N1CCOc2c(F)cc(-c3nc(Nc4ccc(C5CCN(C)CC5)cn4)ncc3F)cc21

>  <Chirality>  (124) 
Achiral Molecule

>  <First_Approval>  (124) 
nan

>  <Phase>  (124) 
2.0

>  <SC_Patent>  (124) 
nan

>  <Synonyms>  (124) 
INIXACICLIB

>  <Withdrawn>  (124) 
nan

>  <Indications>  (124) 
nan

>  <Type>  (124) 
nan

>  <targets_id>  (124) 
nan

>  <Inchi>  (124) 
InChI=1S/C26H30F2N6O/c1-16(2)34-10-11-35-25-20(27)12-19(13-22(25)34)24-21(28)15-30-26(32-24)31-23-5-4-18(14-29-23)17-6-8-33(3)9-7-17/h4-5,12-17H,6-11H2,1-3H3,(H,29,30,31,32)

>  <stdInchikey>  (124) 
YZSCPLGKKMSBMV-UHFFFAOYSA-N

>  <csid>  (124) 


>  <Links>  (124) 
|http://www.chemspider.com/Chemical-Structure..html|https://www.ebi.ac.uk/chembldb/compound/inspect/CHEMBL5095102|https://pubchem.ncbi.nlm.nih.gov/compound/139390026

>  <LinkName>  (124) 
|ChemSpider|ChEMBL|PubChem

>  <lig_pdb_ID>  (124) 


>  <pdb_IDs>  (124) 


>  <indicationDB>  (124) 


>  <uniprotId>  (124) 


>  <indicationG2P>  (124) 


>  <MW>  (124) 
480.2

>  <HBA>  (124) 
7

>  <HBD>  (124) 
1

>  <NRB>  (124) 
5

>  <TPSA>  (124) 
66.4

>  <LogP>  (124) 
5.0

>  <RoF>  (124) 
0

>  <Melting point>  (124) 
nan

>  <Targets>  (124) 
nan

>  <Kinase families>  (124) 


>  <FDA_approved>  (124) 


$$$$
Padnarsertib
     RDKit          2D

 45 50  0  0  0  0  0  0  0  0999 V2000
   12.9608   -5.0261    0.0000 N   0  0  0  0  0  0  0  0  0  0  0  0
   12.0471   -3.8365    0.0000 C   0  0  0  0  0  0  0  0  0  0  0  0
   10.5600   -4.0330    0.0000 C   0  0  0  0  0  0  0  0  0  0  0  0
    9.6463   -2.8434    0.0000 C   0  0  0  0  0  0  0  0  0  0  0  0
   10.2197   -1.4573    0.0000 C   0  0  0  0  0  0  0  0  0  0  0  0
    9.3060   -0.2677    0.0000 C   0  0  0  0  0  0  0  0  0  0  0  0
    7.8189   -0.4642    0.0000 C   0  0  0  0  0  0  0  0  0  0  0  0
    6.9052    0.7254    0.0000 C   0  0  0  0  0  0  0  0  0  0  0  0
    7.4786    2.1115    0.0000 O   0  0  0  0  0  0  0  0  0  0  0  0
    5.4181    0.5289    0.0000 N   0  0  0  0  0  0  0  0  0  0  0  0
    4.5044    1.7185    0.0000 C   0  0  0  0  0  0  0  0  0  0  0  0
    3.0173    1.5221    0.0000 C   0  0  0  0  0  0  0  0  0  0  0  0
    2.3022    0.2035    0.0000 C   0  0  0  0  0  0  0  0  0  0  0  0
    0.8272    0.4762    0.0000 C   0  0  0  0  0  0  0  0  0  0  0  0
   -0.3624   -0.4375    0.0000 C   0  0  0  0  0  0  0  0  0  0  0  0
   -1.7485    0.1358    0.0000 C   0  0  0  0  0  0  0  0  0  0  0  0
   -2.9381   -0.7779    0.0000 C   0  0  0  0  0  0  0  0  0  0  0  0
   -4.3242   -0.2045    0.0000 C   0  0  0  0  0  0  0  0  0  0  0  0
   -5.5138   -1.1182    0.0000 C   0  0  0  0  0  0  0  0  0  0  0  0
   -5.3173   -2.6053    0.0000 C   0  0  0  0  0  0  0  0  0  0  0  0
   -6.5069   -3.5190    0.0000 C   0  0  0  0  0  0  0  0  0  0  0  0
   -6.3104   -5.0060    0.0000 O   0  0  0  0  0  0  0  0  0  0  0  0
   -7.8930   -2.9456    0.0000 N   0  0  0  0  0  0  0  0  0  0  0  0
   -8.0895   -1.4585    0.0000 C   0  0  0  0  0  0  0  0  0  0  0  0
   -9.4755   -0.8851    0.0000 C   0  0  0  0  0  0  0  0  0  0  0  0
  -10.6651   -1.7988    0.0000 C   0  0  0  0  0  0  0  0  0  0  0  0
  -12.0955   -2.2506    0.0000 F   0  0  0  0  0  0  0  0  0  0  0  0
  -11.3584   -0.4686    0.0000 F   0  0  0  0  0  0  0  0  0  0  0  0
  -10.4687   -3.2859    0.0000 C   0  0  0  0  0  0  0  0  0  0  0  0
   -9.0826   -3.8593    0.0000 C   0  0  0  0  0  0  0  0  0  0  0  0
   -3.9312   -3.1786    0.0000 C   0  0  0  0  0  0  0  0  0  0  0  0
   -2.7416   -2.2649    0.0000 C   0  0  0  0  0  0  0  0  0  0  0  0
   -1.9450    1.6229    0.0000 C   0  0  0  0  0  0  0  0  0  0  0  0
   -0.7554    2.5366    0.0000 C   0  0  0  0  0  0  0  0  0  0  0  0
   -0.9518    4.0237    0.0000 C   0  0  0  0  0  0  0  0  0  0  0  0
    0.2378    4.9374    0.0000 C   0  0  0  0  0  0  0  0  0  0  0  0
    0.0413    6.4245    0.0000 C   0  0  0  0  0  0  0  0  0  0  0  0
   -1.3448    6.9978    0.0000 C   0  0  0  0  0  0  0  0  0  0  0  0
   -1.5413    8.4849    0.0000 F   0  0  0  0  0  0  0  0  0  0  0  0
   -2.5344    6.0841    0.0000 C   0  0  0  0  0  0  0  0  0  0  0  0
   -2.3379    4.5971    0.0000 C   0  0  0  0  0  0  0  0  0  0  0  0
    0.6307    1.9632    0.0000 C   0  0  0  0  0  0  0  0  0  0  0  0
    1.9843    2.6096    0.0000 O   0  0  0  0  0  0  0  0  0  0  0  0
   11.7067   -1.2608    0.0000 C   0  0  0  0  0  0  0  0  0  0  0  0
   12.6204   -2.4504    0.0000 N   0  0  0  0  0  0  0  0  0  0  0  0
  1  2  1  0
  2  3  2  0
  3  4  1  0
  4  5  2  0
  5  6  1  0
  6  7  2  0
  7  8  1  0
  8  9  2  0
  8 10  1  0
 10 11  1  0
 11 12  1  0
 12 13  2  0
 13 14  1  0
 14 15  2  0
 15 16  1  0
 16 17  1  0
 17 18  2  0
 18 19  1  0
 19 20  2  0
 20 21  1  0
 21 22  2  0
 21 23  1  0
 23 24  1  0
 24 25  1  0
 25 26  1  0
 26 27  1  0
 26 28  1  0
 26 29  1  0
 29 30  1  0
 20 31  1  0
 31 32  2  0
 16 33  2  0
 33 34  1  0
 34 35  1  0
 35 36  2  0
 36 37  1  0
 37 38  2  0
 38 39  1  0
 38 40  1  0
 40 41  2  0
 34 42  2  0
 42 43  1  0
  5 44  1  0
 44 45  2  0
 45  2  1  0
 43 12  1  0
 42 14  1  0
 32 17  1  0
 41 35  1  0
 30 23  1  0
M  END
>  <BrandName>  (125) 


>  <Applicants>  (125) 
Karyopharm Therapeutics

>  <CHEMBL_ID>  (125) 
CHEMBL4297467

>  <Canonical_Smiles>  (125) 
Nc1ccc(/C=C/C(=O)NCc2cc3cc(-c4ccc(C(=O)N5CCC(F)(F)CC5)cc4)cc(-c4ccc(F)cc4)c3o2)cn1

>  <Chirality>  (125) 
Achiral Molecule

>  <First_Approval>  (125) 
nan

>  <Phase>  (125) 
2.0

>  <SC_Patent>  (125) 
nan

>  <Synonyms>  (125) 
KPT 9274 | KPT-9274 | PADNARSERTIB | PAK4-IN-1

>  <Withdrawn>  (125) 
nan

>  <Indications>  (125) 
nan

>  <Type>  (125) 
nan

>  <targets_id>  (125) 
nan

>  <Inchi>  (125) 
InChI=1S/C35H29F3N4O3/c36-28-9-7-24(8-10-28)30-19-26(23-3-5-25(6-4-23)34(44)42-15-13-35(37,38)14-16-42)17-27-18-29(45-33(27)30)21-41-32(43)12-2-22-1-11-31(39)40-20-22/h1-12,17-20H,13-16,21H2,(H2,39,40)(H,41,43)/b12-2+

>  <stdInchikey>  (125) 
MRFOPLWJZULAQD-SWGQDTFXSA-N

>  <csid>  (125) 
38772371

>  <Links>  (125) 
|http://www.chemspider.com/Chemical-Structure.38772371.html|https://www.ebi.ac.uk/chembldb/compound/inspect/CHEMBL4297467|https://pubchem.ncbi.nlm.nih.gov/compound/117779453|https://www.rcsb.org/ligand/96Q|https://www.ebi.ac.uk/pdbe-srv/pdbechem/chemicalCompound/show/96Q|https://www.guidetopharmacology.org/GRAC/LigandDisplayForward?10593|https://zinc15.docking.org/substances/ZINC000253387914|https://precision.fda.gov/uniisearch/srs/unii/9T56TV18X7

>  <LinkName>  (125) 
|ChemSpider|ChEMBL|PubChem|RCSB|PDBe|Guide to Pharmacology|ZINC|FDA SRS

>  <lig_pdb_ID>  (125) 
96Q

>  <pdb_IDs>  (125) 
5nsd

>  <indicationDB>  (125) 


>  <uniprotId>  (125) 


>  <indicationG2P>  (125) 
None

>  <MW>  (125) 
610.2

>  <HBA>  (125) 
5

>  <HBD>  (125) 
2

>  <NRB>  (125) 
7

>  <TPSA>  (125) 
101.5

>  <LogP>  (125) 
7.1

>  <RoF>  (125) 
2

>  <Melting point>  (125) 
nan

>  <Targets>  (125) 
nan

>  <Kinase families>  (125) 


>  <FDA_approved>  (125) 


$$$$
Zurletrectinib
     RDKit          2D

 30 34  0  0  0  0  0  0  0  0999 V2000
    0.7736    5.3800    0.0000 C   0  0  0  0  0  0  0  0  0  0  0  0
    0.2412    3.9776    0.0000 C   0  0  0  0  0  0  0  0  0  0  0  0
   -1.2445    4.1847    0.0000 C   0  0  0  0  0  0  0  0  0  0  0  0
   -2.6728    3.7267    0.0000 N   0  0  0  0  0  0  0  0  0  0  0  0
   -3.7610    2.6942    0.0000 C   0  0  0  0  0  0  0  0  0  0  0  0
   -5.0097    3.5254    0.0000 O   0  0  0  0  0  0  0  0  0  0  0  0
   -4.2935    1.2919    0.0000 N   0  0  0  0  0  0  0  0  0  0  0  0
   -4.0385   -0.2866    0.0000 C   0  0  0  0  0  0  0  0  0  0  0  0
   -5.3760   -0.9657    0.0000 C   0  0  0  0  0  0  0  0  0  0  0  0
   -5.1433   -2.4476    0.0000 N   0  0  0  0  0  0  0  0  0  0  0  0
   -3.6621   -2.6842    0.0000 N   0  0  0  0  0  0  0  0  0  0  0  0
   -2.8469   -3.9434    0.0000 C   0  0  0  0  0  0  0  0  0  0  0  0
   -1.3489   -3.8669    0.0000 C   0  0  0  0  0  0  0  0  0  0  0  0
   -0.6660   -2.5314    0.0000 C   0  0  0  0  0  0  0  0  0  0  0  0
   -1.4813   -1.2722    0.0000 N   0  0  0  0  0  0  0  0  0  0  0  0
   -2.9793   -1.3487    0.0000 C   0  0  0  0  0  0  0  0  0  0  0  0
    0.7623   -2.0733    0.0000 N   0  0  0  0  0  0  0  0  0  0  0  0
    1.4080   -3.4273    0.0000 C   0  0  0  0  0  0  0  0  0  0  0  0
    2.8951   -3.2316    0.0000 C   0  0  0  0  0  0  0  0  0  0  0  0
    3.9276   -4.3198    0.0000 F   0  0  0  0  0  0  0  0  0  0  0  0
    3.1686   -1.7568    0.0000 C   0  0  0  0  0  0  0  0  0  0  0  0
    1.8505   -1.0409    0.0000 C   0  0  0  0  0  0  0  0  0  0  0  0
    2.3829    0.3614    0.0000 C   0  0  0  0  0  0  0  0  0  0  0  0
    3.7416   -0.2743    0.0000 C   0  0  0  0  0  0  0  0  0  0  0  0
    4.9714    0.5844    0.0000 C   0  0  0  0  0  0  0  0  0  0  0  0
    6.3300   -0.0514    0.0000 F   0  0  0  0  0  0  0  0  0  0  0  0
    4.8427    2.0788    0.0000 C   0  0  0  0  0  0  0  0  0  0  0  0
    3.4841    2.7146    0.0000 N   0  0  0  0  0  0  0  0  0  0  0  0
    2.2542    1.8559    0.0000 C   0  0  0  0  0  0  0  0  0  0  0  0
    1.4898    3.1465    0.0000 O   0  0  0  0  0  0  0  0  0  0  0  0
  2  1  1  6
  2  3  1  0
  3  4  1  0
  4  5  1  0
  5  6  2  0
  5  7  1  0
  7  8  1  0
  8  9  1  0
  9 10  2  0
 10 11  1  0
 11 12  1  0
 12 13  2  0
 13 14  1  0
 14 15  2  0
 15 16  1  0
 14 17  1  0
 17 18  1  0
 18 19  1  0
 19 20  1  6
 19 21  1  0
 22 21  1  1
 22 23  1  0
 23 24  2  0
 24 25  1  0
 25 26  1  0
 25 27  2  0
 27 28  1  0
 28 29  2  0
 29 30  1  0
 30  2  1  0
 16  8  2  0
 22 17  1  0
 29 23  1  0
 16 11  1  0
M  END
>  <BrandName>  (126) 


>  <Applicants>  (126) 
InnoCare Pharma

>  <CHEMBL_ID>  (126) 
CHEMBL5095426

>  <Canonical_Smiles>  (126) 
C[C@H]1CNC(=O)Nc2cnn3ccc(nc23)N2C[C@@H](F)C[C@@H]2c2cc(F)cnc2O1

>  <Chirality>  (126) 
Single Stereoisomer

>  <First_Approval>  (126) 
nan

>  <Phase>  (126) 
2.0

>  <SC_Patent>  (126) 
nan

>  <Synonyms>  (126) 
ICP-723 | ZURLETRECTINIB

>  <Withdrawn>  (126) 
nan

>  <Indications>  (126) 
nan

>  <Type>  (126) 
nan

>  <targets_id>  (126) 
nan

>  <Inchi>  (126) 
InChI=1S/C19H19F2N7O2/c1-10-6-23-19(29)25-14-8-24-28-3-2-16(26-17(14)28)27-9-12(21)5-15(27)13-4-11(20)7-22-18(13)30-10/h2-4,7-8,10,12,15H,5-6,9H2,1H3,(H2,23,25,29)/t10-,12-,15+/m0/s1

>  <stdInchikey>  (126) 
OIBWCYRRWAMTRW-ITDIGPHOSA-N

>  <csid>  (126) 


>  <Links>  (126) 
|http://www.chemspider.com/Chemical-Structure..html|https://www.ebi.ac.uk/chembldb/compound/inspect/CHEMBL5095426|https://pubchem.ncbi.nlm.nih.gov/compound/156371488

>  <LinkName>  (126) 
|ChemSpider|ChEMBL|PubChem

>  <lig_pdb_ID>  (126) 


>  <pdb_IDs>  (126) 


>  <indicationDB>  (126) 


>  <uniprotId>  (126) 


>  <indicationG2P>  (126) 


>  <MW>  (126) 
415.2

>  <HBA>  (126) 
7

>  <HBD>  (126) 
2

>  <NRB>  (126) 
0

>  <TPSA>  (126) 
96.7

>  <LogP>  (126) 
2.5

>  <RoF>  (126) 
0

>  <Melting point>  (126) 
nan

>  <Targets>  (126) 
nan

>  <Kinase families>  (126) 


>  <FDA_approved>  (126) 


$$$$
Nezulcitinib
     RDKit          2D

 39 44  0  0  0  0  0  0  0  0999 V2000
    8.0216   -4.5106    0.0000 C   0  0  0  0  0  0  0  0  0  0  0  0
    8.7844   -3.2190    0.0000 N   0  0  0  0  0  0  0  0  0  0  0  0
   10.2844   -3.2338    0.0000 C   0  0  0  0  0  0  0  0  0  0  0  0
    8.0473   -1.9126    0.0000 C   0  0  0  0  0  0  0  0  0  0  0  0
    6.6023   -1.5101    0.0000 C   0  0  0  0  0  0  0  0  0  0  0  0
    7.0048   -0.0651    0.0000 N   0  0  0  0  0  0  0  0  0  0  0  0
    8.4498   -0.4676    0.0000 C   0  0  0  0  0  0  0  0  0  0  0  0
    6.2677    1.2413    0.0000 C   0  0  0  0  0  0  0  0  0  0  0  0
    7.0305    2.5328    0.0000 O   0  0  0  0  0  0  0  0  0  0  0  0
    4.7677    1.2561    0.0000 C   0  0  0  0  0  0  0  0  0  0  0  0
    4.0050   -0.0355    0.0000 C   0  0  0  0  0  0  0  0  0  0  0  0
    2.5050   -0.0207    0.0000 C   0  0  0  0  0  0  0  0  0  0  0  0
    1.4904   -1.1254    0.0000 N   0  0  0  0  0  0  0  0  0  0  0  0
    0.1262   -0.5018    0.0000 C   0  0  0  0  0  0  0  0  0  0  0  0
    0.2977    0.9883    0.0000 N   0  0  0  0  0  0  0  0  0  0  0  0
    1.7679    1.2857    0.0000 C   0  0  0  0  0  0  0  0  0  0  0  0
    2.5307    2.5773    0.0000 C   0  0  0  0  0  0  0  0  0  0  0  0
    4.0306    2.5625    0.0000 N   0  0  0  0  0  0  0  0  0  0  0  0
    4.7934    3.8540    0.0000 C   0  0  0  0  0  0  0  0  0  0  0  0
    4.0563    5.1604    0.0000 C   0  0  0  0  0  0  0  0  0  0  0  0
    6.2933    3.8392    0.0000 C   0  0  0  0  0  0  0  0  0  0  0  0
   -1.1802   -1.2390    0.0000 C   0  0  0  0  0  0  0  0  0  0  0  0
   -1.3517   -2.7291    0.0000 N   0  0  0  0  0  0  0  0  0  0  0  0
   -2.8220   -3.0265    0.0000 N   0  0  0  0  0  0  0  0  0  0  0  0
   -3.5591   -1.7201    0.0000 C   0  0  0  0  0  0  0  0  0  0  0  0
   -5.0232   -1.3938    0.0000 C   0  0  0  0  0  0  0  0  0  0  0  0
   -5.4726    0.0373    0.0000 C   0  0  0  0  0  0  0  0  0  0  0  0
   -4.4579    1.1421    0.0000 C   0  0  0  0  0  0  0  0  0  0  0  0
   -2.9939    0.8157    0.0000 C   0  0  0  0  0  0  0  0  0  0  0  0
   -2.5445   -0.6154    0.0000 C   0  0  0  0  0  0  0  0  0  0  0  0
   -6.9367    0.3636    0.0000 C   0  0  0  0  0  0  0  0  0  0  0  0
   -7.3861    1.7947    0.0000 C   0  0  0  0  0  0  0  0  0  0  0  0
   -8.8502    2.1211    0.0000 C   0  0  0  0  0  0  0  0  0  0  0  0
   -9.8648    1.0163    0.0000 C   0  0  0  0  0  0  0  0  0  0  0  0
  -11.3289    1.3427    0.0000 O   0  0  0  0  0  0  0  0  0  0  0  0
   -9.4154   -0.4148    0.0000 C   0  0  0  0  0  0  0  0  0  0  0  0
   -7.9513   -0.7411    0.0000 C   0  0  0  0  0  0  0  0  0  0  0  0
   -7.5019   -2.1722    0.0000 C   0  0  0  0  0  0  0  0  0  0  0  0
   -8.5166   -3.2770    0.0000 C   0  0  0  0  0  0  0  0  0  0  0  0
  1  2  1  0
  2  3  1  0
  2  4  1  0
  4  5  1  0
  5  6  1  0
  6  7  1  0
  6  8  1  0
  8  9  2  0
 10  8  1  6
 10 11  1  0
 11 12  1  0
 12 13  1  0
 13 14  1  0
 14 15  2  0
 15 16  1  0
 16 17  1  0
 17 18  1  0
 18 19  1  0
 19 20  1  0
 19 21  1  0
 14 22  1  0
 22 23  2  0
 23 24  1  0
 24 25  1  0
 25 26  2  0
 26 27  1  0
 27 28  2  0
 28 29  1  0
 29 30  2  0
 27 31  1  0
 31 32  2  0
 32 33  1  0
 33 34  2  0
 34 35  1  0
 34 36  1  0
 36 37  2  0
 37 38  1  0
 38 39  1  0
  7  4  1  0
 18 10  1  0
 30 22  1  0
 37 31  1  0
 16 12  2  0
 30 25  1  0
M  END
>  <BrandName>  (127) 


>  <Applicants>  (127) 
Theravance Biopharma

>  <CHEMBL_ID>  (127) 
CHEMBL4802163

>  <Canonical_Smiles>  (127) 
CN(C)C1CN(C1)C(=O)[C@@H]1CC2NC(=NC=2CN1C(C)C)C1=NNC2=CC(=CC=C21)C1C=CC(O)=CC=1CC

>  <Chirality>  (127) 
Single Stereoisomer

>  <First_Approval>  (127) 
nan

>  <Phase>  (127) 
2.0

>  <SC_Patent>  (127) 
nan

>  <Synonyms>  (127) 
NEZULCITINIB | TD-0903 | THRX-136377

>  <Withdrawn>  (127) 
nan

>  <Indications>  (127) 
nan

>  <Type>  (127) 
nan

>  <targets_id>  (127) 
nan

>  <Inchi>  (127) 
InChI=1S/C30H37N7O2/c1-6-18-11-21(38)8-10-22(18)19-7-9-23-24(12-19)33-34-28(23)29-31-25-13-27(37(17(2)3)16-26(25)32-29)30(39)36-14-20(15-36)35(4)5/h7-12,17,20,27,38H,6,13-16H2,1-5H3,(H,31,32)(H,33,34)/t27-/m0/s1

>  <stdInchikey>  (127) 
VQIIUJSNIKEMCK-MHZLTWQESA-N

>  <csid>  (127) 
115009351

>  <Links>  (127) 
|http://www.chemspider.com/Chemical-Structure.115009351.html|https://www.ebi.ac.uk/chembldb/compound/inspect/CHEMBL4802163|https://pubchem.ncbi.nlm.nih.gov/compound/146421275|https://www.guidetopharmacology.org/GRAC/LigandDisplayForward?11304|https://precision.fda.gov/uniisearch/srs/unii/CXA4I8AH6A

>  <LinkName>  (127) 
|ChemSpider|ChEMBL|PubChem|Guide to Pharmacology|FDA SRS

>  <lig_pdb_ID>  (127) 


>  <pdb_IDs>  (127) 


>  <indicationDB>  (127) 


>  <uniprotId>  (127) 


>  <indicationG2P>  (127) 
None

>  <MW>  (127) 
527.3

>  <HBA>  (127) 
6

>  <HBD>  (127) 
3

>  <NRB>  (127) 
6

>  <TPSA>  (127) 
104.4

>  <LogP>  (127) 
3.8

>  <RoF>  (127) 
1

>  <Melting point>  (127) 
nan

>  <Targets>  (127) 
nan

>  <Kinase families>  (127) 


>  <FDA_approved>  (127) 


$$$$
Dilmapimod
     RDKit          2D

 33 36  0  0  0  0  0  0  0  0999 V2000
   -3.4989   -1.9827    0.0000 C   0  0  0  0  0  0  0  0  0  0  0  0
   -4.3110   -0.7216    0.0000 C   0  0  0  0  0  0  0  0  0  0  0  0
   -5.8092   -0.7943    0.0000 C   0  0  0  0  0  0  0  0  0  0  0  0
   -6.6213    0.4669    0.0000 C   0  0  0  0  0  0  0  0  0  0  0  0
   -5.9352    1.8007    0.0000 C   0  0  0  0  0  0  0  0  0  0  0  0
   -4.4369    1.8735    0.0000 C   0  0  0  0  0  0  0  0  0  0  0  0
   -3.6249    0.6123    0.0000 C   0  0  0  0  0  0  0  0  0  0  0  0
   -2.1266    0.6850    0.0000 C   0  0  0  0  0  0  0  0  0  0  0  0
   -1.3145   -0.5761    0.0000 C   0  0  0  0  0  0  0  0  0  0  0  0
   -2.0007   -1.9100    0.0000 C   0  0  0  0  0  0  0  0  0  0  0  0
   -1.1886   -3.1712    0.0000 C   0  0  0  0  0  0  0  0  0  0  0  0
    0.3097   -3.0985    0.0000 C   0  0  0  0  0  0  0  0  0  0  0  0
    1.1217   -4.3596    0.0000 O   0  0  0  0  0  0  0  0  0  0  0  0
    0.9958   -1.7646    0.0000 N   0  0  0  0  0  0  0  0  0  0  0  0
    0.1837   -0.5034    0.0000 C   0  0  0  0  0  0  0  0  0  0  0  0
    0.8699    0.8304    0.0000 N   0  0  0  0  0  0  0  0  0  0  0  0
    0.0578    2.0916    0.0000 C   0  0  0  0  0  0  0  0  0  0  0  0
   -1.4405    2.0189    0.0000 N   0  0  0  0  0  0  0  0  0  0  0  0
    0.7439    3.4255    0.0000 N   0  0  0  0  0  0  0  0  0  0  0  0
    2.2421    3.4982    0.0000 C   0  0  0  0  0  0  0  0  0  0  0  0
    2.9283    4.8320    0.0000 C   0  0  0  0  0  0  0  0  0  0  0  0
    4.4265    4.9048    0.0000 O   0  0  0  0  0  0  0  0  0  0  0  0
    3.0542    2.2370    0.0000 C   0  0  0  0  0  0  0  0  0  0  0  0
    4.5525    2.3097    0.0000 O   0  0  0  0  0  0  0  0  0  0  0  0
    2.4940   -1.6919    0.0000 C   0  0  0  0  0  0  0  0  0  0  0  0
    3.3061   -2.9530    0.0000 C   0  0  0  0  0  0  0  0  0  0  0  0
    4.8044   -2.8803    0.0000 C   0  0  0  0  0  0  0  0  0  0  0  0
    5.4905   -1.5464    0.0000 C   0  0  0  0  0  0  0  0  0  0  0  0
    4.6784   -0.2853    0.0000 C   0  0  0  0  0  0  0  0  0  0  0  0
    3.1802   -0.3580    0.0000 C   0  0  0  0  0  0  0  0  0  0  0  0
    2.3681    0.9032    0.0000 F   0  0  0  0  0  0  0  0  0  0  0  0
    2.6200   -4.2869    0.0000 F   0  0  0  0  0  0  0  0  0  0  0  0
   -8.1196    0.3942    0.0000 F   0  0  0  0  0  0  0  0  0  0  0  0
  1  2  1  0
  2  3  2  0
  3  4  1  0
  4  5  2  0
  5  6  1  0
  6  7  2  0
  7  8  1  0
  8  9  2  0
  9 10  1  0
 10 11  2  0
 11 12  1  0
 12 13  2  0
 12 14  1  0
 14 15  1  0
 15 16  2  0
 16 17  1  0
 17 18  2  0
 17 19  1  0
 19 20  1  0
 20 21  1  0
 21 22  1  0
 20 23  1  0
 23 24  1  0
 14 25  1  0
 25 26  2  0
 26 27  1  0
 27 28  2  0
 28 29  1  0
 29 30  2  0
 30 31  1  0
 26 32  1  0
  4 33  1  0
  7  2  1  0
 18  8  1  0
 15  9  1  0
 30 25  1  0
M  END
>  <BrandName>  (128) 


>  <Applicants>  (128) 
GlaxoSmithKline

>  <CHEMBL_ID>  (128) 
CHEMBL2103838

>  <Canonical_Smiles>  (128) 
Cc1cc(ccc1c2c3ccc(=O)n(c3nc(n2)NC(CO)CO)c4c(cccc4F)F)F

>  <Chirality>  (128) 
Achiral Molecule

>  <First_Approval>  (128) 
nan

>  <Phase>  (128) 
2.0

>  <SC_Patent>  (128) 
nan

>  <Synonyms>  (128) 
DILMAPIMOD | GW-681323 | SB-681323 | SB681323

>  <Withdrawn>  (128) 
nan

>  <Indications>  (128) 
Dilmapimod has been used in trials studying the treatment and diagnostic of Nerve Trauma, Inflammation, Pain, Neuropathic, Arthritis, Rheumatoid, and Coronary Heart Disease, among others.

>  <Type>  (128) 
nan

>  <targets_id>  (128) 
Q16539|Q15759|O15264|P53778

>  <Inchi>  (128) 
InChI=1S/C23H19F3N4O3/c1-12-9-13(24)5-6-15(12)20-16-7-8-19(33)30(21-17(25)3-2-4-18(21)26)22(16)29-23(28-20)27-14(10-31)11-32/h2-9,14,31-32H,10-11H2,1H3,(H,27,28,29)

>  <stdInchikey>  (128) 
ORVNHOYNEHYKJG-UHFFFAOYSA-N

>  <csid>  (128) 
8473450

>  <Links>  (128) 
|http://www.chemspider.com/Chemical-Structure.8473450.html|https://www.ebi.ac.uk/chembldb/compound/inspect/CHEMBL2103838|https://pubchem.ncbi.nlm.nih.gov/compound/10297982|https://go.drugbank.com/drugs/DB12140|https://www.guidetopharmacology.org/GRAC/LigandDisplayForward?7815|https://zinc15.docking.org/substances/ZINC000034997404|https://precision.fda.gov/uniisearch/srs/unii/Q3238VQW0N

>  <LinkName>  (128) 
|ChemSpider|ChEMBL|PubChem|DrugBank|Guide to Pharmacology|ZINC|FDA SRS

>  <lig_pdb_ID>  (128) 


>  <pdb_IDs>  (128) 


>  <indicationDB>  (128) 


>  <uniprotId>  (128) 


>  <indicationG2P>  (128) 
None

>  <MW>  (128) 
456.1

>  <HBA>  (128) 
7

>  <HBD>  (128) 
3

>  <NRB>  (128) 
6

>  <TPSA>  (128) 
100.3

>  <LogP>  (128) 
2.9

>  <RoF>  (128) 
0

>  <Melting point>  (128) 
nan

>  <Targets>  (128) 
MAPK14; MAPK11; MAPK13; MAPK12

>  <Kinase families>  (128) 
CMGC

>  <FDA_approved>  (128) 


$$$$
Lunresertib
     RDKit          2D

 24 26  0  0  0  0  0  0  0  0999 V2000
   -5.1429   -1.8634    0.0000 C   0  0  0  0  0  0  0  0  0  0  0  0
   -3.7132   -1.4094    0.0000 C   0  0  0  0  0  0  0  0  0  0  0  0
   -3.3915    0.0557    0.0000 C   0  0  0  0  0  0  0  0  0  0  0  0
   -1.9619    0.5096    0.0000 C   0  0  0  0  0  0  0  0  0  0  0  0
   -1.3426    1.8758    0.0000 C   0  0  0  0  0  0  0  0  0  0  0  0
   -2.0839    3.1799    0.0000 C   0  0  0  0  0  0  0  0  0  0  0  0
   -1.3252    4.4739    0.0000 N   0  0  0  0  0  0  0  0  0  0  0  0
   -3.5838    3.1899    0.0000 O   0  0  0  0  0  0  0  0  0  0  0  0
    0.1481    1.7090    0.0000 C   0  0  0  0  0  0  0  0  0  0  0  0
    1.1593    2.8170    0.0000 N   0  0  0  0  0  0  0  0  0  0  0  0
    0.4501    0.2398    0.0000 N   0  0  0  0  0  0  0  0  0  0  0  0
    1.8163   -0.3795    0.0000 C   0  0  0  0  0  0  0  0  0  0  0  0
    1.9631   -1.8723    0.0000 C   0  0  0  0  0  0  0  0  0  0  0  0
    0.7437   -2.7458    0.0000 C   0  0  0  0  0  0  0  0  0  0  0  0
    3.3293   -2.4916    0.0000 C   0  0  0  0  0  0  0  0  0  0  0  0
    4.5487   -1.6181    0.0000 C   0  0  0  0  0  0  0  0  0  0  0  0
    4.4019   -0.1253    0.0000 C   0  0  0  0  0  0  0  0  0  0  0  0
    5.6213    0.7482    0.0000 O   0  0  0  0  0  0  0  0  0  0  0  0
    3.0357    0.4940    0.0000 C   0  0  0  0  0  0  0  0  0  0  0  0
    2.8890    1.9868    0.0000 C   0  0  0  0  0  0  0  0  0  0  0  0
   -0.8539   -0.5015    0.0000 C   0  0  0  0  0  0  0  0  0  0  0  0
   -1.1756   -1.9666    0.0000 N   0  0  0  0  0  0  0  0  0  0  0  0
   -2.6053   -2.4206    0.0000 C   0  0  0  0  0  0  0  0  0  0  0  0
   -2.9270   -3.8857    0.0000 C   0  0  0  0  0  0  0  0  0  0  0  0
  1  2  1  0
  2  3  2  0
  3  4  1  0
  4  5  1  0
  5  6  1  0
  6  7  1  0
  6  8  2  0
  5  9  2  0
  9 10  1  0
  9 11  1  0
 11 12  1  0
 12 13  2  0
 13 14  1  0
 13 15  1  0
 15 16  2  0
 16 17  1  0
 17 18  1  0
 17 19  2  0
 19 20  1  0
 11 21  1  0
 21 22  1  0
 22 23  2  0
 23 24  1  0
 23  2  1  0
 21  4  2  0
 19 12  1  0
M  END
>  <BrandName>  (129) 


>  <Applicants>  (129) 
('Repare Therapeutics',)

>  <CHEMBL_ID>  (129) 
CHEMBL5199076

>  <Canonical_Smiles>  (129) 
Cc1cc2c(C(N)=O)c(N)n(-c3c(C)ccc(O)c3C)c2nc1C

>  <Chirality>  (129) 
Single Stereoisomer

>  <First_Approval>  (129) 
nan

>  <Phase>  (129) 
2.0

>  <SC_Patent>  (129) 
nan

>  <Synonyms>  (129) 
LUNRESERTIB | RP 6306 | RP-6306

>  <Withdrawn>  (129) 
nan

>  <Indications>  (129) 
nan

>  <Type>  (129) 
nan

>  <targets_id>  (129) 
nan

>  <Inchi>  (129) 
InChI=1S/C18H20N4O2/c1-8-5-6-13(23)10(3)15(8)22-16(19)14(17(20)24)12-7-9(2)11(4)21-18(12)22/h5-7,23H,19H2,1-4H3,(H2,20,24)

>  <stdInchikey>  (129) 
ARBRHWRTXPWZGN-UHFFFAOYSA-N

>  <csid>  (129) 
115008046

>  <Links>  (129) 
|http://www.chemspider.com/Chemical-Structure.115008046.html|https://www.ebi.ac.uk/chembldb/compound/inspect/CHEMBL5199076|https://pubchem.ncbi.nlm.nih.gov/compound/156869388|https://www.rcsb.org/ligand/QGI|https://www.ebi.ac.uk/pdbe-srv/pdbechem/chemicalCompound/show/QGI

>  <LinkName>  (129) 
|ChemSpider|ChEMBL|PubChem|RCSB|PDBe

>  <lig_pdb_ID>  (129) 
QGI

>  <pdb_IDs>  (129) 
8d6e

>  <indicationDB>  (129) 


>  <uniprotId>  (129) 


>  <indicationG2P>  (129) 


>  <MW>  (129) 
324.2

>  <HBA>  (129) 
5

>  <HBD>  (129) 
3

>  <NRB>  (129) 
2

>  <TPSA>  (129) 
107.2

>  <LogP>  (129) 
2.6

>  <RoF>  (129) 
0

>  <Melting point>  (129) 
nan

>  <Targets>  (129) 
nan

>  <Kinase families>  (129) 


>  <FDA_approved>  (129) 


$$$$
Emavusertib
     RDKit          2D

 36 41  0  0  0  0  0  0  0  0999 V2000
    7.7813   -4.9817    0.0000 C   0  0  0  0  0  0  0  0  0  0  0  0
    7.8045   -3.4819    0.0000 C   0  0  0  0  0  0  0  0  0  0  0  0
    6.5173   -2.7118    0.0000 C   0  0  0  0  0  0  0  0  0  0  0  0
    6.5405   -1.2120    0.0000 C   0  0  0  0  0  0  0  0  0  0  0  0
    5.2533   -0.4420    0.0000 C   0  0  0  0  0  0  0  0  0  0  0  0
    3.8737   -1.0308    0.0000 N   0  0  0  0  0  0  0  0  0  0  0  0
    2.8874    0.0994    0.0000 C   0  0  0  0  0  0  0  0  0  0  0  0
    1.3933   -0.0343    0.0000 C   0  0  0  0  0  0  0  0  0  0  0  0
    0.7621   -1.3950    0.0000 O   0  0  0  0  0  0  0  0  0  0  0  0
    0.5306    1.1927    0.0000 N   0  0  0  0  0  0  0  0  0  0  0  0
   -0.9635    1.0591    0.0000 C   0  0  0  0  0  0  0  0  0  0  0  0
   -1.5947   -0.3016    0.0000 C   0  0  0  0  0  0  0  0  0  0  0  0
   -3.0888   -0.4353    0.0000 C   0  0  0  0  0  0  0  0  0  0  0  0
   -3.9892   -1.6350    0.0000 O   0  0  0  0  0  0  0  0  0  0  0  0
   -5.4084   -1.1494    0.0000 C   0  0  0  0  0  0  0  0  0  0  0  0
   -6.6354   -2.0122    0.0000 N   0  0  0  0  0  0  0  0  0  0  0  0
   -7.9961   -1.3809    0.0000 C   0  0  0  0  0  0  0  0  0  0  0  0
   -9.2232   -2.2437    0.0000 C   0  0  0  0  0  0  0  0  0  0  0  0
   -9.0895   -3.7377    0.0000 O   0  0  0  0  0  0  0  0  0  0  0  0
   -7.7288   -4.3690    0.0000 C   0  0  0  0  0  0  0  0  0  0  0  0
   -6.5018   -3.5062    0.0000 C   0  0  0  0  0  0  0  0  0  0  0  0
   -5.3851    0.3504    0.0000 N   0  0  0  0  0  0  0  0  0  0  0  0
   -3.9515    0.7918    0.0000 C   0  0  0  0  0  0  0  0  0  0  0  0
   -3.3203    2.1525    0.0000 N   0  0  0  0  0  0  0  0  0  0  0  0
   -1.8262    2.2861    0.0000 C   0  0  0  0  0  0  0  0  0  0  0  0
   -1.1950    3.6468    0.0000 N   0  0  0  0  0  0  0  0  0  0  0  0
   -1.9248    4.9573    0.0000 C   0  0  0  0  0  0  0  0  0  0  0  0
   -0.9039    6.0564    0.0000 C   0  0  0  0  0  0  0  0  0  0  0  0
    0.4568    5.4251    0.0000 C   0  0  0  0  0  0  0  0  0  0  0  0
    1.7673    6.1549    0.0000 O   0  0  0  0  0  0  0  0  0  0  0  0
    0.2769    3.9359    0.0000 C   0  0  0  0  0  0  0  0  0  0  0  0
    3.6574    1.3866    0.0000 C   0  0  0  0  0  0  0  0  0  0  0  0
    5.1196    1.0521    0.0000 O   0  0  0  0  0  0  0  0  0  0  0  0
    7.8510   -0.4822    0.0000 C   0  0  0  0  0  0  0  0  0  0  0  0
    9.1383   -1.2523    0.0000 C   0  0  0  0  0  0  0  0  0  0  0  0
    9.1150   -2.7521    0.0000 N   0  0  0  0  0  0  0  0  0  0  0  0
  1  2  1  0
  2  3  2  0
  3  4  1  0
  4  5  1  0
  5  6  2  0
  6  7  1  0
  7  8  1  0
  8  9  2  0
  8 10  1  0
 10 11  1  0
 11 12  2  0
 12 13  1  0
 13 14  1  0
 14 15  1  0
 15 16  1  0
 16 17  1  0
 17 18  1  0
 18 19  1  0
 19 20  1  0
 20 21  1  0
 15 22  2  0
 22 23  1  0
 23 24  1  0
 24 25  2  0
 25 26  1  0
 26 27  1  0
 27 28  1  0
 28 29  1  0
 29 30  1  1
 29 31  1  0
  7 32  2  0
 32 33  1  0
  4 34  2  0
 34 35  1  0
 35 36  2  0
 36  2  1  0
 33  5  1  0
 25 11  1  0
 31 26  1  0
 23 13  2  0
 21 16  1  0
M  END
>  <BrandName>  (130) 


>  <Applicants>  (130) 
Aurigene Discovery Technologies

>  <CHEMBL_ID>  (130) 
CHEMBL4783351

>  <Canonical_Smiles>  (130) 
Cc1cc(-c2nc(C(=O)Nc3cc4oc(N5CCOCC5)nc4nc3N3CC[C@@H](O)C3)co2)ccn1

>  <Chirality>  (130) 
Single Stereoisomer

>  <First_Approval>  (130) 
nan

>  <Phase>  (130) 
2.0

>  <SC_Patent>  (130) 
nan

>  <Synonyms>  (130) 
AU-4948 | CA-4948 | EMAVUSERTIB

>  <Withdrawn>  (130) 
{''}

>  <Indications>  (130) 
nan

>  <Type>  (130) 
nan

>  <targets_id>  (130) 
nan

>  <Inchi>  (130) 
InChI=1S/C24H25N7O5/c1-14-10-15(2-4-25-14)23-27-18(13-35-23)22(33)26-17-11-19-20(28-21(17)31-5-3-16(32)12-31)29-24(36-19)30-6-8-34-9-7-30/h2,4,10-11,13,16,32H,3,5-9,12H2,1H3,(H,26,33)/t16-/m1/s1

>  <stdInchikey>  (130) 
SJHNWSAWWOAWJH-MRXNPFEDSA-N

>  <csid>  (130) 
29395146

>  <Links>  (130) 
|http://www.chemspider.com/Chemical-Structure.29395146.html|https://www.ebi.ac.uk/chembldb/compound/inspect/CHEMBL4783351|https://pubchem.ncbi.nlm.nih.gov/compound/118224491|https://go.drugbank.com/drugs/DB18060|https://www.rcsb.org/ligand/FJ0|https://www.ebi.ac.uk/pdbe-srv/pdbechem/chemicalCompound/show/FJ0|https://precision.fda.gov/uniisearch/srs/unii/MH5DMF9JKY

>  <LinkName>  (130) 
|ChemSpider|ChEMBL|PubChem|DrugBank|RCSB|PDBe|FDA SRS

>  <lig_pdb_ID>  (130) 
FJ0

>  <pdb_IDs>  (130) 
7c2v

>  <indicationDB>  (130) 


>  <uniprotId>  (130) 


>  <indicationG2P>  (130) 


>  <MW>  (130) 
491.2

>  <HBA>  (130) 
11

>  <HBD>  (130) 
2

>  <NRB>  (130) 
5

>  <TPSA>  (130) 
142.9

>  <LogP>  (130) 
2.2

>  <RoF>  (130) 
1

>  <Melting point>  (130) 
nan

>  <Targets>  (130) 
nan

>  <Kinase families>  (130) 


>  <FDA_approved>  (130) 


$$$$
Amuvatinib
     RDKit          2D

 32 37  0  0  0  0  0  0  0  0999 V2000
   -9.3655    0.9668    0.0000 C   0  0  0  0  0  0  0  0  0  0  0  0
   -8.7044    2.3132    0.0000 C   0  0  0  0  0  0  0  0  0  0  0  0
   -7.2078    2.4139    0.0000 C   0  0  0  0  0  0  0  0  0  0  0  0
   -6.3723    1.1681    0.0000 C   0  0  0  0  0  0  0  0  0  0  0  0
   -7.0334   -0.1783    0.0000 C   0  0  0  0  0  0  0  0  0  0  0  0
   -8.5300   -0.2790    0.0000 C   0  0  0  0  0  0  0  0  0  0  0  0
   -5.9572   -1.2232    0.0000 C   0  0  0  0  0  0  0  0  0  0  0  0
   -4.6309   -0.5225    0.0000 C   0  0  0  0  0  0  0  0  0  0  0  0
   -4.8875    0.9554    0.0000 O   0  0  0  0  0  0  0  0  0  0  0  0
   -3.3609   -1.3207    0.0000 C   0  0  0  0  0  0  0  0  0  0  0  0
   -3.4173   -2.8196    0.0000 N   0  0  0  0  0  0  0  0  0  0  0  0
   -4.7435   -3.5203    0.0000 C   0  0  0  0  0  0  0  0  0  0  0  0
   -6.0135   -2.7221    0.0000 N   0  0  0  0  0  0  0  0  0  0  0  0
   -2.0347   -0.6200    0.0000 N   0  0  0  0  0  0  0  0  0  0  0  0
   -0.7647   -1.4182    0.0000 C   0  0  0  0  0  0  0  0  0  0  0  0
    0.5616   -0.7175    0.0000 C   0  0  0  0  0  0  0  0  0  0  0  0
    0.6179    0.7814    0.0000 N   0  0  0  0  0  0  0  0  0  0  0  0
   -0.6521    1.5796    0.0000 C   0  0  0  0  0  0  0  0  0  0  0  0
   -1.9783    0.8789    0.0000 C   0  0  0  0  0  0  0  0  0  0  0  0
    1.9442    1.4821    0.0000 C   0  0  0  0  0  0  0  0  0  0  0  0
    2.0005    2.9810    0.0000 S   0  0  0  0  0  0  0  0  0  0  0  0
    3.2141    0.6839    0.0000 N   0  0  0  0  0  0  0  0  0  0  0  0
    4.5404    1.3846    0.0000 C   0  0  0  0  0  0  0  0  0  0  0  0
    5.8104    0.5863    0.0000 C   0  0  0  0  0  0  0  0  0  0  0  0
    5.7541   -0.9126    0.0000 C   0  0  0  0  0  0  0  0  0  0  0  0
    7.0240   -1.7109    0.0000 C   0  0  0  0  0  0  0  0  0  0  0  0
    8.3503   -1.0102    0.0000 C   0  0  0  0  0  0  0  0  0  0  0  0
    8.4066    0.4888    0.0000 C   0  0  0  0  0  0  0  0  0  0  0  0
    7.1367    1.2870    0.0000 C   0  0  0  0  0  0  0  0  0  0  0  0
    9.8496    0.8984    0.0000 O   0  0  0  0  0  0  0  0  0  0  0  0
   10.6851   -0.3474    0.0000 C   0  0  0  0  0  0  0  0  0  0  0  0
    9.7585   -1.5269    0.0000 O   0  0  0  0  0  0  0  0  0  0  0  0
  1  2  2  0
  2  3  1  0
  3  4  2  0
  4  5  1  0
  5  6  2  0
  5  7  1  0
  7  8  2  0
  8  9  1  0
  8 10  1  0
 10 11  2  0
 11 12  1  0
 12 13  2  0
 10 14  1  0
 14 15  1  0
 15 16  1  0
 16 17  1  0
 17 18  1  0
 18 19  1  0
 17 20  1  0
 20 21  2  0
 20 22  1  0
 22 23  1  0
 23 24  1  0
 24 25  2  0
 25 26  1  0
 26 27  2  0
 27 28  1  0
 28 29  2  0
 28 30  1  0
 30 31  1  0
 31 32  1  0
  6  1  1  0
  9  4  1  0
 13  7  1  0
 19 14  1  0
 29 24  1  0
 32 27  1  0
M  END
>  <BrandName>  (131) 


>  <Applicants>  (131) 
Supergen

>  <CHEMBL_ID>  (131) 
CHEMBL2103851

>  <Canonical_Smiles>  (131) 
c1ccc2c(c1)c3c(o2)c(ncn3)N4CCN(CC4)C(=S)NCc5ccc6c(c5)OCO6

>  <Chirality>  (131) 
Achiral Molecule

>  <First_Approval>  (131) 
nan

>  <Phase>  (131) 
2.0

>  <SC_Patent>  (131) 
nan

>  <Synonyms>  (131) 
AMUVATINIB | HPK 56 | HPK-56 | HPK56 | MP 470 | MP-470 | MP470

>  <Withdrawn>  (131) 
nan

>  <Indications>  (131) 
Amuvatinib is a selective multi-targeted tyrosine kinase inhibitor that suppresses c-MET, c-RET and the mutant forms of c-KIT, PDGFR and FLT3. Amuvatinib also suppresses Rad51 protein, a critical comp
onent of double-stranded DNA repair in cancer cells.

>  <Type>  (131) 
nan

>  <targets_id>  (131) 
P10721|P08581|P07949|P36888|P09619

>  <Inchi>  (131) 
InChI=1S/C23H21N5O3S/c32-23(24-12-15-5-6-18-19(11-15)30-14-29-18)28-9-7-27(8-10-28)22-21-20(25-13-26-22)16-3-1-2-4-17(16)31-21/h1-6,11,13H,7-10,12,14H2,(H,24,32)

>  <stdInchikey>  (131) 
FOFDIMHVKGYHRU-UHFFFAOYSA-N

>  <csid>  (131) 
9457280

>  <Links>  (131) 
|http://www.chemspider.com/Chemical-Structure.9457280.html|https://www.ebi.ac.uk/chembldb/compound/inspect/CHEMBL2103851|https://pubchem.ncbi.nlm.nih.gov/compound/11282283|https://go.drugbank.com/drugs/DB12742|https://www.guidetopharmacology.org/GRAC/LigandDisplayForward?7932|https://zinc15.docking.org/substances/ZINC000034951302|https://precision.fda.gov/uniisearch/srs/unii/SO9S6QZB4R|https://www.bindingdb.org/bind/chemsearch/marvin/MolStructure.jsp?monomerid=50172081

>  <LinkName>  (131) 
|ChemSpider|ChEMBL|PubChem|DrugBank|Guide to Pharmacology|ZINC|FDA SRS|BindingDB

>  <lig_pdb_ID>  (131) 


>  <pdb_IDs>  (131) 


>  <indicationDB>  (131) 


>  <uniprotId>  (131) 


>  <indicationG2P>  (131) 
None

>  <MW>  (131) 
447.1

>  <HBA>  (131) 
7

>  <HBD>  (131) 
1

>  <NRB>  (131) 
3

>  <TPSA>  (131) 
75.9

>  <LogP>  (131) 
3.3

>  <RoF>  (131) 
0

>  <Melting point>  (131) 
nan

>  <Targets>  (131) 
KIT; MET; RET; FLT3; PDGFRB

>  <Kinase families>  (131) 
Tyr

>  <FDA_approved>  (131) 


$$$$
Tuspetinib
     RDKit          2D

 36 41  0  0  0  0  0  0  0  0999 V2000
   -8.1984   -3.2034    0.0000 C   0  0  0  0  0  0  0  0  0  0  0  0
   -6.9787   -2.3304    0.0000 C   0  0  0  0  0  0  0  0  0  0  0  0
   -7.1250   -0.8375    0.0000 C   0  0  0  0  0  0  0  0  0  0  0  0
   -5.9052    0.0356    0.0000 C   0  0  0  0  0  0  0  0  0  0  0  0
   -4.5393   -0.5842    0.0000 C   0  0  0  0  0  0  0  0  0  0  0  0
   -4.3930   -2.0771    0.0000 C   0  0  0  0  0  0  0  0  0  0  0  0
   -5.6127   -2.9501    0.0000 C   0  0  0  0  0  0  0  0  0  0  0  0
   -2.9280   -2.3993    0.0000 N   0  0  0  0  0  0  0  0  0  0  0  0
   -2.1689   -1.1056    0.0000 C   0  0  0  0  0  0  0  0  0  0  0  0
   -3.1647    0.0162    0.0000 C   0  0  0  0  0  0  0  0  0  0  0  0
   -2.8424    1.4812    0.0000 C   0  0  0  0  0  0  0  0  0  0  0  0
   -1.4126    1.9346    0.0000 N   0  0  0  0  0  0  0  0  0  0  0  0
   -1.0904    3.3996    0.0000 C   0  0  0  0  0  0  0  0  0  0  0  0
    0.3395    3.8530    0.0000 N   0  0  0  0  0  0  0  0  0  0  0  0
    1.4470    2.8415    0.0000 C   0  0  0  0  0  0  0  0  0  0  0  0
    1.1248    1.3765    0.0000 C   0  0  0  0  0  0  0  0  0  0  0  0
    2.2324    0.3649    0.0000 C   0  0  0  0  0  0  0  0  0  0  0  0
    1.9102   -1.1001    0.0000 C   0  0  0  0  0  0  0  0  0  0  0  0
    3.0178   -2.1116    0.0000 N   0  0  0  0  0  0  0  0  0  0  0  0
    4.4476   -1.6582    0.0000 C   0  0  0  0  0  0  0  0  0  0  0  0
    5.5552   -2.6697    0.0000 C   0  0  0  0  0  0  0  0  0  0  0  0
    6.9850   -2.2163    0.0000 C   0  0  0  0  0  0  0  0  0  0  0  0
    5.2330   -4.1347    0.0000 N   0  0  0  0  0  0  0  0  0  0  0  0
    3.8031   -4.5881    0.0000 C   0  0  0  0  0  0  0  0  0  0  0  0
    3.4809   -6.0531    0.0000 C   0  0  0  0  0  0  0  0  0  0  0  0
    2.6955   -3.5766    0.0000 C   0  0  0  0  0  0  0  0  0  0  0  0
    3.6622    0.8184    0.0000 C   0  0  0  0  0  0  0  0  0  0  0  0
    3.9845    2.2833    0.0000 C   0  0  0  0  0  0  0  0  0  0  0  0
    2.8769    3.2949    0.0000 C   0  0  0  0  0  0  0  0  0  0  0  0
    5.4143    2.7368    0.0000 C   0  0  0  0  0  0  0  0  0  0  0  0
    6.4258    3.8444    0.0000 C   0  0  0  0  0  0  0  0  0  0  0  0
    6.8793    2.4145    0.0000 C   0  0  0  0  0  0  0  0  0  0  0  0
   -2.1980    4.4111    0.0000 N   0  0  0  0  0  0  0  0  0  0  0  0
   -3.6278    3.9577    0.0000 C   0  0  0  0  0  0  0  0  0  0  0  0
   -3.9500    2.4927    0.0000 C   0  0  0  0  0  0  0  0  0  0  0  0
   -5.3799    2.0393    0.0000 Cl  0  0  0  0  0  0  0  0  0  0  0  0
  1  2  1  0
  2  3  2  0
  3  4  1  0
  4  5  2  0
  5  6  1  0
  6  7  2  0
  6  8  1  0
  8  9  1  0
  9 10  2  0
 10 11  1  0
 11 12  2  0
 12 13  1  0
 13 14  1  0
 14 15  1  0
 15 16  2  0
 16 17  1  0
 17 18  1  0
 18 19  1  0
 19 20  1  0
 20 21  1  0
 21 22  1  6
 21 23  1  0
 23 24  1  0
 24 25  1  6
 24 26  1  0
 17 27  2  0
 27 28  1  0
 28 29  2  0
 28 30  1  0
 30 31  1  0
 31 32  1  0
 13 33  2  0
 33 34  1  0
 34 35  2  0
 35 36  1  0
  7  2  1  0
 35 11  1  0
 10  5  1  0
 29 15  1  0
 32 30  1  0
 26 19  1  0
M  END
>  <BrandName>  (132) 


>  <Applicants>  (132) 
Hanmi Pharmaceutical

>  <CHEMBL_ID>  (132) 
CHEMBL5314420

>  <Canonical_Smiles>  (132) 
CC1C=CC2=C(C=1)NC=C2C1=NC(NC2=CC(CN3C[C@H](C)N[C@H](C)C3)=CC(=C2)C2CC2)=NC=C1Cl

>  <Chirality>  (132) 
Unknown

>  <First_Approval>  (132) 
nan

>  <Phase>  (132) 
2.0

>  <SC_Patent>  (132) 
nan

>  <Synonyms>  (132) 
HM-43239 | HM43239 | TUSPETINIB

>  <Withdrawn>  (132) 
nan

>  <Indications>  (132) 
nan

>  <Type>  (132) 
nan

>  <targets_id>  (132) 
nan

>  <Inchi>  (132) 
InChI=1S/C29H33ClN6/c1-17-4-7-24-25(12-31-27(24)8-17)28-26(30)13-32-29(35-28)34-23-10-20(9-22(11-23)21-5-6-21)16-36-14-18(2)33-19(3)15-36/h4,7-13,18-19,21,31,33H,5-6,14-16H2,1-3H3,(H,32,34,35)/t18-,19+

>  <stdInchikey>  (132) 
FZLSDZZNPXXBBB-KDURUIRLSA-N

>  <csid>  (132) 
75531294

>  <Links>  (132) 
|http://www.chemspider.com/Chemical-Structure.75531294.html|https://www.ebi.ac.uk/chembldb/compound/inspect/CHEMBL5314420|https://pubchem.ncbi.nlm.nih.gov/compound/135390910|https://go.drugbank.com/drugs/DB15343|https://precision.fda.gov/uniisearch/srs/unii/C0WUS7XXE9|https://www.bindingdb.org/bind/chemsearch/marvin/MolStructure.jsp?monomerid=476700

>  <LinkName>  (132) 
|ChemSpider|ChEMBL|PubChem|DrugBank|FDA SRS|BindingDB

>  <lig_pdb_ID>  (132) 


>  <pdb_IDs>  (132) 


>  <indicationDB>  (132) 


>  <uniprotId>  (132) 


>  <indicationG2P>  (132) 


>  <MW>  (132) 
500.2

>  <HBA>  (132) 
5

>  <HBD>  (132) 
3

>  <NRB>  (132) 
6

>  <TPSA>  (132) 
68.9

>  <LogP>  (132) 
6.4

>  <RoF>  (132) 
2

>  <Melting point>  (132) 
nan

>  <Targets>  (132) 
nan

>  <Kinase families>  (132) 


>  <FDA_approved>  (132) 


$$$$
Mubritinib
     RDKit          2D

 34 37  0  0  0  0  0  0  0  0999 V2000
    5.2394   -0.9781    0.0000 C   0  0  0  0  0  0  0  0  0  0  0  0
    3.8161   -1.4517    0.0000 C   0  0  0  0  0  0  0  0  0  0  0  0
    2.6944   -0.4560    0.0000 C   0  0  0  0  0  0  0  0  0  0  0  0
    2.9958    1.0134    0.0000 C   0  0  0  0  0  0  0  0  0  0  0  0
    4.4191    1.4871    0.0000 C   0  0  0  0  0  0  0  0  0  0  0  0
    5.5409    0.4913    0.0000 C   0  0  0  0  0  0  0  0  0  0  0  0
    6.9642    0.9649    0.0000 C   0  0  0  0  0  0  0  0  0  0  0  0
    8.0860   -0.0309    0.0000 C   0  0  0  0  0  0  0  0  0  0  0  0
    9.5092    0.4427    0.0000 C   0  0  0  0  0  0  0  0  0  0  0  0
   10.6310   -0.5531    0.0000 C   0  0  0  0  0  0  0  0  0  0  0  0
   12.0543   -0.0795    0.0000 N   0  0  0  0  0  0  0  0  0  0  0  0
   12.5077    1.3504    0.0000 C   0  0  0  0  0  0  0  0  0  0  0  0
   14.0077    1.3610    0.0000 C   0  0  0  0  0  0  0  0  0  0  0  0
   14.4813   -0.0623    0.0000 N   0  0  0  0  0  0  0  0  0  0  0  0
   13.2740   -0.9525    0.0000 N   0  0  0  0  0  0  0  0  0  0  0  0
    1.2711   -0.9296    0.0000 O   0  0  0  0  0  0  0  0  0  0  0  0
    0.1493    0.0662    0.0000 C   0  0  0  0  0  0  0  0  0  0  0  0
   -1.2740   -0.4074    0.0000 C   0  0  0  0  0  0  0  0  0  0  0  0
   -1.7274   -1.8372    0.0000 C   0  0  0  0  0  0  0  0  0  0  0  0
   -3.2274   -1.8478    0.0000 O   0  0  0  0  0  0  0  0  0  0  0  0
   -3.7010   -0.4246    0.0000 C   0  0  0  0  0  0  0  0  0  0  0  0
   -2.4937    0.4657    0.0000 N   0  0  0  0  0  0  0  0  0  0  0  0
   -5.1308    0.0288    0.0000 C   0  0  0  0  0  0  0  0  0  0  0  0
   -6.2384   -0.9827    0.0000 C   0  0  0  0  0  0  0  0  0  0  0  0
   -7.6682   -0.5293    0.0000 C   0  0  0  0  0  0  0  0  0  0  0  0
   -7.9905    0.9357    0.0000 C   0  0  0  0  0  0  0  0  0  0  0  0
   -9.4203    1.3891    0.0000 C   0  0  0  0  0  0  0  0  0  0  0  0
  -10.5279    0.3775    0.0000 C   0  0  0  0  0  0  0  0  0  0  0  0
  -10.2056   -1.0874    0.0000 C   0  0  0  0  0  0  0  0  0  0  0  0
   -8.7758   -1.5409    0.0000 C   0  0  0  0  0  0  0  0  0  0  0  0
  -11.9577    0.8309    0.0000 C   0  0  0  0  0  0  0  0  0  0  0  0
  -13.3875    1.2844    0.0000 F   0  0  0  0  0  0  0  0  0  0  0  0
  -11.5043    2.2608    0.0000 F   0  0  0  0  0  0  0  0  0  0  0  0
  -12.4111   -0.5989    0.0000 F   0  0  0  0  0  0  0  0  0  0  0  0
  1  2  2  0
  2  3  1  0
  3  4  2  0
  4  5  1  0
  5  6  2  0
  6  7  1  0
  7  8  1  0
  8  9  1  0
  9 10  1  0
 10 11  1  0
 11 12  1  0
 12 13  2  0
 13 14  1  0
 14 15  2  0
  3 16  1  0
 16 17  1  0
 17 18  1  0
 18 19  2  0
 19 20  1  0
 20 21  1  0
 21 22  2  0
 21 23  1  0
 23 24  2  0
 24 25  1  0
 25 26  2  0
 26 27  1  0
 27 28  2  0
 28 29  1  0
 29 30  2  0
 28 31  1  0
 31 32  1  0
 31 33  1  0
 31 34  1  0
  6  1  1  0
 15 11  1  0
 22 18  1  0
 30 25  1  0
M  END
>  <BrandName>  (133) 


>  <Applicants>  (133) 
Takeda

>  <CHEMBL_ID>  (133) 
CHEMBL1614707

>  <Canonical_Smiles>  (133) 
c1cc(ccc1CCCCn2ccnn2)OCc3coc(n3)/C=C/c4ccc(cc4)C(F)(F)F

>  <Chirality>  (133) 
Achiral Molecule

>  <First_Approval>  (133) 
nan

>  <Phase>  (133) 
2.0

>  <SC_Patent>  (133) 
nan

>  <Synonyms>  (133) 
MUBRITINIB | TAK-165

>  <Withdrawn>  (133) 
nan

>  <Indications>  (133) 
nan

>  <Type>  (133) 
nan

>  <targets_id>  (133) 
P00533|P04626

>  <Inchi>  (133) 
InChI=1S/C25H23F3N4O2/c26-25(27,28)21-9-4-20(5-10-21)8-13-24-30-22(18-34-24)17-33-23-11-6-19(7-12-23)3-1-2-15-32-16-14-29-31-32/h4-14,16,18H,1-3,15,17H2/b13-8+

>  <stdInchikey>  (133) 
ZTFBIUXIQYRUNT-MDWZMJQESA-N

>  <csid>  (133) 
4948554

>  <Links>  (133) 
|http://www.chemspider.com/Chemical-Structure.4948554.html|https://www.ebi.ac.uk/chembldb/compound/inspect/CHEMBL1614707|https://pubchem.ncbi.nlm.nih.gov/compound/6444692|https://go.drugbank.com/drugs/DB12682|https://www.guidetopharmacology.org/GRAC/LigandDisplayForward?6011|https://zinc15.docking.org/substances/ZINC000011679877|https://precision.fda.gov/uniisearch/srs/unii/V734AZP9BR

>  <LinkName>  (133) 
|ChemSpider|ChEMBL|PubChem|DrugBank|Guide to Pharmacology|ZINC|FDA SRS

>  <lig_pdb_ID>  (133) 


>  <pdb_IDs>  (133) 


>  <indicationDB>  (133) 


>  <uniprotId>  (133) 


>  <indicationG2P>  (133) 
None

>  <MW>  (133) 
468.2

>  <HBA>  (133) 
6

>  <HBD>  (133) 
0

>  <NRB>  (133) 
10

>  <TPSA>  (133) 
66.0

>  <LogP>  (133) 
6.1

>  <RoF>  (133) 
1

>  <Melting point>  (133) 
nan

>  <Targets>  (133) 
EGFR; ERBB2

>  <Kinase families>  (133) 
Tyr

>  <FDA_approved>  (133) 


$$$$
Mifanertinib
     RDKit          2D

 32 34  0  0  0  0  0  0  0  0999 V2000
   -9.5840   -3.4881    0.0000 C   0  0  0  0  0  0  0  0  0  0  0  0
   -8.5706   -2.3822    0.0000 N   0  0  0  0  0  0  0  0  0  0  0  0
   -9.0216   -0.9516    0.0000 C   0  0  0  0  0  0  0  0  0  0  0  0
   -7.1062   -2.7070    0.0000 C   0  0  0  0  0  0  0  0  0  0  0  0
   -6.0927   -1.6011    0.0000 C   0  0  0  0  0  0  0  0  0  0  0  0
   -4.6283   -1.9259    0.0000 C   0  0  0  0  0  0  0  0  0  0  0  0
   -3.6148   -0.8200    0.0000 C   0  0  0  0  0  0  0  0  0  0  0  0
   -4.0658    0.6106    0.0000 O   0  0  0  0  0  0  0  0  0  0  0  0
   -2.1504   -1.1448    0.0000 N   0  0  0  0  0  0  0  0  0  0  0  0
   -1.1370   -0.0389    0.0000 C   0  0  0  0  0  0  0  0  0  0  0  0
    0.3275   -0.3637    0.0000 C   0  0  0  0  0  0  0  0  0  0  0  0
    1.3409    0.7422    0.0000 C   0  0  0  0  0  0  0  0  0  0  0  0
    2.8053    0.4174    0.0000 C   0  0  0  0  0  0  0  0  0  0  0  0
    3.2563   -1.0132    0.0000 N   0  0  0  0  0  0  0  0  0  0  0  0
    4.7207   -1.3379    0.0000 C   0  0  0  0  0  0  0  0  0  0  0  0
    5.1717   -2.7685    0.0000 C   0  0  0  0  0  0  0  0  0  0  0  0
    6.6361   -3.0933    0.0000 C   0  0  0  0  0  0  0  0  0  0  0  0
    7.6496   -1.9874    0.0000 C   0  0  0  0  0  0  0  0  0  0  0  0
    9.1140   -2.3122    0.0000 F   0  0  0  0  0  0  0  0  0  0  0  0
    7.1986   -0.5568    0.0000 C   0  0  0  0  0  0  0  0  0  0  0  0
    8.2121    0.5490    0.0000 Cl  0  0  0  0  0  0  0  0  0  0  0  0
    5.7342   -0.2321    0.0000 C   0  0  0  0  0  0  0  0  0  0  0  0
    3.8188    1.5233    0.0000 N   0  0  0  0  0  0  0  0  0  0  0  0
    3.3678    2.9539    0.0000 C   0  0  0  0  0  0  0  0  0  0  0  0
    1.9034    3.2786    0.0000 N   0  0  0  0  0  0  0  0  0  0  0  0
    0.8899    2.1728    0.0000 C   0  0  0  0  0  0  0  0  0  0  0  0
   -0.5745    2.4975    0.0000 C   0  0  0  0  0  0  0  0  0  0  0  0
   -1.5879    1.3917    0.0000 C   0  0  0  0  0  0  0  0  0  0  0  0
   -3.0524    1.7164    0.0000 O   0  0  0  0  0  0  0  0  0  0  0  0
   -3.5033    3.1470    0.0000 C   0  0  0  0  0  0  0  0  0  0  0  0
   -4.9677    3.4718    0.0000 F   0  0  0  0  0  0  0  0  0  0  0  0
   -2.4899    4.2529    0.0000 F   0  0  0  0  0  0  0  0  0  0  0  0
  1  2  1  0
  2  3  1  0
  2  4  1  0
  4  5  1  0
  5  6  2  0
  6  7  1  0
  7  8  2  0
  7  9  1  0
  9 10  1  0
 10 11  2  0
 11 12  1  0
 12 13  2  0
 13 14  1  0
 14 15  1  0
 15 16  2  0
 16 17  1  0
 17 18  2  0
 18 19  1  0
 18 20  1  0
 20 21  1  0
 20 22  2  0
 13 23  1  0
 23 24  2  0
 24 25  1  0
 25 26  2  0
 26 27  1  0
 27 28  2  0
 28 29  1  0
 29 30  1  0
 30 31  1  0
 30 32  1  0
 28 10  1  0
 26 12  1  0
 22 15  1  0
M  END
>  <BrandName>  (134) 


>  <Applicants>  (134) 
('',)

>  <CHEMBL_ID>  (134) 
CHEMBL5314470

>  <Canonical_Smiles>  (134) 
CN(C)C/C=C/C(=O)Nc1cc2c(Nc3ccc(F)c(Cl)c3)ncnc2cc1OC(F)F

>  <Chirality>  (134) 
Unknown

>  <First_Approval>  (134) 
nan

>  <Phase>  (134) 
2.0

>  <SC_Patent>  (134) 
nan

>  <Synonyms>  (134) 
MIFANERTINIB

>  <Withdrawn>  (134) 
nan

>  <Indications>  (134) 
nan

>  <Type>  (134) 
nan

>  <targets_id>  (134) 
nan

>  <Inchi>  (134) 
InChI=1S/C21H19ClF3N5O2/c1-30(2)7-3-4-19(31)29-17-9-13-16(10-18(17)32-21(24)25)26-11-27-20(13)28-12-5-6-15(23)14(22)8-12/h3-6,8-11,21H,7H2,1-2H3,(H,29,31)(H,26,27,28)/b4-3+

>  <stdInchikey>  (134) 
QPACRWFSFWQNOZ-ONEGZZNKSA-N

>  <csid>  (134) 
128921195

>  <Links>  (134) 
|http://www.chemspider.com/Chemical-Structure.128921195.html|https://www.ebi.ac.uk/chembldb/compound/inspect/CHEMBL5314470|https://pubchem.ncbi.nlm.nih.gov/compound/71613550

>  <LinkName>  (134) 
|ChemSpider|ChEMBL|PubChem

>  <lig_pdb_ID>  (134) 


>  <pdb_IDs>  (134) 


>  <indicationDB>  (134) 


>  <uniprotId>  (134) 


>  <indicationG2P>  (134) 


>  <MW>  (134) 
465.1

>  <HBA>  (134) 
6

>  <HBD>  (134) 
2

>  <NRB>  (134) 
8

>  <TPSA>  (134) 
79.4

>  <LogP>  (134) 
4.8

>  <RoF>  (134) 
0

>  <Melting point>  (134) 
nan

>  <Targets>  (134) 
nan

>  <Kinase families>  (134) 


>  <FDA_approved>  (134) 


$$$$
Pumecitinib
     RDKit          2D

 28 31  0  0  0  0  0  0  0  0999 V2000
   -6.5603   -1.9673    0.0000 C   0  0  0  0  0  0  0  0  0  0  0  0
   -6.3160   -0.4874    0.0000 C   0  0  0  0  0  0  0  0  0  0  0  0
   -7.4756    0.4642    0.0000 C   0  0  0  0  0  0  0  0  0  0  0  0
   -4.9122    0.0411    0.0000 S   0  0  0  0  0  0  0  0  0  0  0  0
   -4.3837   -1.3627    0.0000 O   0  0  0  0  0  0  0  0  0  0  0  0
   -5.4406    1.4449    0.0000 O   0  0  0  0  0  0  0  0  0  0  0  0
   -3.5083    0.5695    0.0000 N   0  0  0  0  0  0  0  0  0  0  0  0
   -2.1420   -0.0495    0.0000 C   0  0  0  0  0  0  0  0  0  0  0  0
   -1.5230    1.3169    0.0000 C   0  0  0  0  0  0  0  0  0  0  0  0
   -2.1420   -0.0495    0.0000 C   0  0  0  0  0  0  0  0  0  0  0  0
   -3.6348   -0.1966    0.0000 C   0  0  0  0  0  0  0  0  0  0  0  0
   -5.0476   -0.7005    0.0000 N   0  0  0  0  0  0  0  0  0  0  0  0
   -0.1567    0.6979    0.0000 N   0  0  0  0  0  0  0  0  0  0  0  0
    1.1472    1.4394    0.0000 C   0  0  0  0  0  0  0  0  0  0  0  0
    2.2554    0.4285    0.0000 C   0  0  0  0  0  0  0  0  0  0  0  0
    3.7246    0.7309    0.0000 C   0  0  0  0  0  0  0  0  0  0  0  0
    4.1973    2.1544    0.0000 N   0  0  0  0  0  0  0  0  0  0  0  0
    5.6666    2.4567    0.0000 C   0  0  0  0  0  0  0  0  0  0  0  0
    6.6630    1.3355    0.0000 N   0  0  0  0  0  0  0  0  0  0  0  0
    6.1902   -0.0880    0.0000 C   0  0  0  0  0  0  0  0  0  0  0  0
    6.9318   -1.3919    0.0000 N   0  0  0  0  0  0  0  0  0  0  0  0
    5.9209   -2.5001    0.0000 C   0  0  0  0  0  0  0  0  0  0  0  0
    4.5545   -1.8811    0.0000 C   0  0  0  0  0  0  0  0  0  0  0  0
    4.7210   -0.3904    0.0000 C   0  0  0  0  0  0  0  0  0  0  0  0
    1.6364   -0.9378    0.0000 C   0  0  0  0  0  0  0  0  0  0  0  0
    2.3779   -2.2417    0.0000 N   0  0  0  0  0  0  0  0  0  0  0  0
    0.1456   -0.7713    0.0000 N   0  0  0  0  0  0  0  0  0  0  0  0
   -2.8894    1.9359    0.0000 C   0  0  0  0  0  0  0  0  0  0  0  0
  1  2  1  0
  2  3  1  0
  2  4  1  0
  4  5  2  0
  4  6  2  0
  4  7  1  0
  7  8  1  0
  8  9  1  0
  9 10  1  0
 10 11  1  0
 11 12  3  0
  9 13  1  0
 13 14  1  0
 14 15  2  0
 15 16  1  0
 16 17  2  0
 17 18  1  0
 18 19  2  0
 19 20  1  0
 20 21  1  0
 21 22  1  0
 22 23  2  0
 23 24  1  0
 15 25  1  0
 25 26  1  0
 25 27  2  0
  9 28  1  0
 28  7  1  0
 27 13  1  0
 24 16  1  0
 24 20  2  0
M  END
>  <BrandName>  (135) 


>  <Applicants>  (135) 
('',)

>  <CHEMBL_ID>  (135) 
CHEMBL5314478

>  <Canonical_Smiles>  (135) 
CC(C)S(=O)(=O)N1CC(CC#N)(n2cc(-c3ncnc4[nH]ccc34)c(N)n2)C1

>  <Chirality>  (135) 
Achiral Molecule

>  <First_Approval>  (135) 
nan

>  <Phase>  (135) 
2.0

>  <SC_Patent>  (135) 
nan

>  <Synonyms>  (135) 
PUMECITINIB

>  <Withdrawn>  (135) 
nan

>  <Indications>  (135) 
nan

>  <Type>  (135) 
nan

>  <targets_id>  (135) 
nan

>  <Inchi>  (135) 
InChI=1S/C17H20N8O2S/c1-11(2)28(26,27)24-8-17(9-24,4-5-18)25-7-13(15(19)23-25)14-12-3-6-20-16(12)22-10-21-14/h3,6-7,10-11H,4,8-9H2,1-2H3,(H2,19,23)(H,20,21,22)

>  <stdInchikey>  (135) 
OUXYFMCMGWQWQF-UHFFFAOYSA-N

>  <csid>  (135) 
115037080

>  <Links>  (135) 
|http://www.chemspider.com/Chemical-Structure.115037080.html|https://www.ebi.ac.uk/chembldb/compound/inspect/CHEMBL5314478|https://pubchem.ncbi.nlm.nih.gov/compound/141761076

>  <LinkName>  (135) 
|ChemSpider|ChEMBL|PubChem

>  <lig_pdb_ID>  (135) 


>  <pdb_IDs>  (135) 


>  <indicationDB>  (135) 


>  <uniprotId>  (135) 


>  <indicationG2P>  (135) 


>  <MW>  (135) 
400.1

>  <HBA>  (135) 
8

>  <HBD>  (135) 
2

>  <NRB>  (135) 
5

>  <TPSA>  (135) 
146.6

>  <LogP>  (135) 
1.1

>  <RoF>  (135) 
0

>  <Melting point>  (135) 
nan

>  <Targets>  (135) 
nan

>  <Kinase families>  (135) 


>  <FDA_approved>  (135) 


$$$$
Fisogatinib
     RDKit          2D

 34 37  0  0  0  0  0  0  0  0999 V2000
  -10.6746   -1.9429    0.0000 C   0  0  0  0  0  0  0  0  0  0  0  0
   -9.1758   -2.0030    0.0000 C   0  0  0  0  0  0  0  0  0  0  0  0
   -8.3744   -0.7350    0.0000 C   0  0  0  0  0  0  0  0  0  0  0  0
   -9.0718    0.5930    0.0000 O   0  0  0  0  0  0  0  0  0  0  0  0
   -6.8756   -0.7951    0.0000 N   0  0  0  0  0  0  0  0  0  0  0  0
   -6.0742    0.4729    0.0000 C   0  0  0  0  0  0  0  0  0  0  0  0
   -6.7716    1.8009    0.0000 C   0  0  0  0  0  0  0  0  0  0  0  0
   -5.9701    3.0689    0.0000 C   0  0  0  0  0  0  0  0  0  0  0  0
   -4.4713    3.0088    0.0000 O   0  0  0  0  0  0  0  0  0  0  0  0
   -3.7740    1.6808    0.0000 C   0  0  0  0  0  0  0  0  0  0  0  0
   -4.5754    0.4128    0.0000 C   0  0  0  0  0  0  0  0  0  0  0  0
   -3.8780   -0.9152    0.0000 N   0  0  0  0  0  0  0  0  0  0  0  0
   -2.3792   -0.9753    0.0000 C   0  0  0  0  0  0  0  0  0  0  0  0
   -1.6818   -2.3033    0.0000 N   0  0  0  0  0  0  0  0  0  0  0  0
   -0.1830   -2.3634    0.0000 C   0  0  0  0  0  0  0  0  0  0  0  0
    0.6184   -1.0954    0.0000 C   0  0  0  0  0  0  0  0  0  0  0  0
    2.1172   -1.1555    0.0000 C   0  0  0  0  0  0  0  0  0  0  0  0
    2.9186    0.1125    0.0000 C   0  0  0  0  0  0  0  0  0  0  0  0
    4.4174    0.0524    0.0000 C   0  0  0  0  0  0  0  0  0  0  0  0
    5.1148   -1.2756    0.0000 C   0  0  0  0  0  0  0  0  0  0  0  0
    4.3134   -2.5436    0.0000 Cl  0  0  0  0  0  0  0  0  0  0  0  0
    6.6136   -1.3357    0.0000 C   0  0  0  0  0  0  0  0  0  0  0  0
    7.3110   -2.6637    0.0000 O   0  0  0  0  0  0  0  0  0  0  0  0
    8.8098   -2.7238    0.0000 C   0  0  0  0  0  0  0  0  0  0  0  0
    7.4150   -0.0677    0.0000 C   0  0  0  0  0  0  0  0  0  0  0  0
    6.7176    1.2603    0.0000 C   0  0  0  0  0  0  0  0  0  0  0  0
    7.5190    2.5282    0.0000 O   0  0  0  0  0  0  0  0  0  0  0  0
    9.0178    2.4682    0.0000 C   0  0  0  0  0  0  0  0  0  0  0  0
    5.2188    1.3204    0.0000 C   0  0  0  0  0  0  0  0  0  0  0  0
    4.5214    2.6484    0.0000 Cl  0  0  0  0  0  0  0  0  0  0  0  0
    2.2212    1.4405    0.0000 C   0  0  0  0  0  0  0  0  0  0  0  0
    0.7224    1.5006    0.0000 C   0  0  0  0  0  0  0  0  0  0  0  0
   -0.0790    0.2326    0.0000 C   0  0  0  0  0  0  0  0  0  0  0  0
   -1.5778    0.2927    0.0000 N   0  0  0  0  0  0  0  0  0  0  0  0
  1  2  2  0
  2  3  1  0
  3  4  2  0
  3  5  1  0
  6  5  1  1
  6  7  1  0
  7  8  1  0
  8  9  1  0
  9 10  1  0
 10 11  1  0
 11 12  1  1
 12 13  1  0
 13 14  2  0
 14 15  1  0
 15 16  2  0
 16 17  1  0
 17 18  2  0
 18 19  1  0
 19 20  2  0
 20 21  1  0
 20 22  1  0
 22 23  1  0
 23 24  1  0
 22 25  2  0
 25 26  1  0
 26 27  1  0
 27 28  1  0
 26 29  2  0
 29 30  1  0
 18 31  1  0
 31 32  2  0
 32 33  1  0
 33 34  2  0
 11  6  1  0
 34 13  1  0
 33 16  1  0
 29 19  1  0
M  END
>  <BrandName>  (136) 


>  <Applicants>  (136) 
Blueprint Medicines

>  <CHEMBL_ID>  (136) 
CHEMBL4514636

>  <Canonical_Smiles>  (136) 
C=CC(=O)N[C@H]1CCOC[C@H]1Nc1ncc2cc(-c3c(Cl)c(OC)cc(OC)c3Cl)ccc2n1

>  <Chirality>  (136) 
Single Stereoisomer

>  <First_Approval>  (136) 
nan

>  <Phase>  (136) 
2.0

>  <SC_Patent>  (136) 
nan

>  <Synonyms>  (136) 
BLU-111362 | BLU-554 | BLU111362 | FISOGATINIB | X-439161 | X439161

>  <Withdrawn>  (136) 
nan

>  <Indications>  (136) 
nan

>  <Type>  (136) 
nan

>  <targets_id>  (136) 
nan

>  <Inchi>  (136) 
InChI=1S/C24H24Cl2N4O4/c1-4-20(31)28-16-7-8-34-12-17(16)30-24-27-11-14-9-13(5-6-15(14)29-24)21-22(25)18(32-2)10-19(33-3)23(21)26/h4-6,9-11,16-17H,1,7-8,12H2,2-3H3,(H,28,31)(H,27,29,30)/t16-,17+/m0/s1

>  <stdInchikey>  (136) 
MGZKYOAQVGSSGC-DLBZAZTESA-N

>  <csid>  (136) 
58828666

>  <Links>  (136) 
|http://www.chemspider.com/Chemical-Structure.58828666.html|https://www.ebi.ac.uk/chembldb/compound/inspect/CHEMBL4514636|https://pubchem.ncbi.nlm.nih.gov/compound/91885617|https://go.drugbank.com/drugs/DB16167|https://www.guidetopharmacology.org/GRAC/LigandDisplayForward?10220|https://precision.fda.gov/uniisearch/srs/unii/5Q7R99CKV2

>  <LinkName>  (136) 
|ChemSpider|ChEMBL|PubChem|DrugBank|Guide to Pharmacology|FDA SRS

>  <lig_pdb_ID>  (136) 


>  <pdb_IDs>  (136) 


>  <indicationDB>  (136) 


>  <uniprotId>  (136) 


>  <indicationG2P>  (136) 
None

>  <MW>  (136) 
502.1

>  <HBA>  (136) 
7

>  <HBD>  (136) 
2

>  <NRB>  (136) 
7

>  <TPSA>  (136) 
94.6

>  <LogP>  (136) 
4.5

>  <RoF>  (136) 
1

>  <Melting point>  (136) 
nan

>  <Targets>  (136) 
nan

>  <Kinase families>  (136) 


>  <FDA_approved>  (136) 


$$$$
Tamnorzatinib
     RDKit          2D

 42 47  0  0  0  0  0  0  0  0999 V2000
  -12.0093   -1.2298    0.0000 C   0  0  0  0  0  0  0  0  0  0  0  0
  -11.1924    0.0283    0.0000 O   0  0  0  0  0  0  0  0  0  0  0  0
   -9.6944   -0.0501    0.0000 C   0  0  0  0  0  0  0  0  0  0  0  0
   -9.0134   -1.3866    0.0000 C   0  0  0  0  0  0  0  0  0  0  0  0
   -7.5154   -1.4650    0.0000 C   0  0  0  0  0  0  0  0  0  0  0  0
   -6.8343   -2.8014    0.0000 N   0  0  0  0  0  0  0  0  0  0  0  0
   -5.3364   -2.8798    0.0000 C   0  0  0  0  0  0  0  0  0  0  0  0
   -4.5195   -1.6218    0.0000 C   0  0  0  0  0  0  0  0  0  0  0  0
   -5.2006   -0.2853    0.0000 C   0  0  0  0  0  0  0  0  0  0  0  0
   -4.3837    0.9728    0.0000 O   0  0  0  0  0  0  0  0  0  0  0  0
   -2.8858    0.8944    0.0000 C   0  0  0  0  0  0  0  0  0  0  0  0
   -2.2047   -0.4421    0.0000 C   0  0  0  0  0  0  0  0  0  0  0  0
   -0.7067   -0.5205    0.0000 N   0  0  0  0  0  0  0  0  0  0  0  0
    0.1101    0.7376    0.0000 C   0  0  0  0  0  0  0  0  0  0  0  0
   -0.5709    2.0740    0.0000 C   0  0  0  0  0  0  0  0  0  0  0  0
   -2.0689    2.1524    0.0000 C   0  0  0  0  0  0  0  0  0  0  0  0
    1.6081    0.6592    0.0000 N   0  0  0  0  0  0  0  0  0  0  0  0
    2.2892   -0.6773    0.0000 C   0  0  0  0  0  0  0  0  0  0  0  0
    1.4723   -1.9354    0.0000 O   0  0  0  0  0  0  0  0  0  0  0  0
    3.7871   -0.7557    0.0000 C   0  0  0  0  0  0  0  0  0  0  0  0
    4.4682   -2.0922    0.0000 C   0  0  0  0  0  0  0  0  0  0  0  0
    5.9661   -2.1706    0.0000 C   0  0  0  0  0  0  0  0  0  0  0  0
    6.7830   -0.9125    0.0000 C   0  0  0  0  0  0  0  0  0  0  0  0
    8.2810   -0.9909    0.0000 C   0  0  0  0  0  0  0  0  0  0  0  0
    8.9620   -2.3274    0.0000 C   0  0  0  0  0  0  0  0  0  0  0  0
    8.1452   -3.5854    0.0000 C   0  0  0  0  0  0  0  0  0  0  0  0
    6.6472   -3.5070    0.0000 C   0  0  0  0  0  0  0  0  0  0  0  0
    5.8303   -4.7651    0.0000 O   0  0  0  0  0  0  0  0  0  0  0  0
    6.1019    0.4240    0.0000 N   0  0  0  0  0  0  0  0  0  0  0  0
    6.9188    1.6820    0.0000 C   0  0  0  0  0  0  0  0  0  0  0  0
    8.4168    1.6036    0.0000 C   0  0  0  0  0  0  0  0  0  0  0  0
    9.2336    2.8617    0.0000 C   0  0  0  0  0  0  0  0  0  0  0  0
    8.5525    4.1981    0.0000 C   0  0  0  0  0  0  0  0  0  0  0  0
    7.0546    4.2765    0.0000 C   0  0  0  0  0  0  0  0  0  0  0  0
    6.2377    3.0185    0.0000 C   0  0  0  0  0  0  0  0  0  0  0  0
    4.6040    0.5024    0.0000 C   0  0  0  0  0  0  0  0  0  0  0  0
    3.9229    1.8388    0.0000 O   0  0  0  0  0  0  0  0  0  0  0  0
   -6.6985   -0.2069    0.0000 C   0  0  0  0  0  0  0  0  0  0  0  0
   -7.3796    1.1296    0.0000 C   0  0  0  0  0  0  0  0  0  0  0  0
   -8.8776    1.2080    0.0000 C   0  0  0  0  0  0  0  0  0  0  0  0
   -9.5586    2.5444    0.0000 O   0  0  0  0  0  0  0  0  0  0  0  0
   -8.7418    3.8025    0.0000 C   0  0  0  0  0  0  0  0  0  0  0  0
  1  2  1  0
  2  3  1  0
  3  4  2  0
  4  5  1  0
  5  6  2  0
  6  7  1  0
  7  8  2  0
  8  9  1  0
  9 10  1  0
 10 11  1  0
 11 12  2  0
 12 13  1  0
 13 14  2  0
 14 15  1  0
 15 16  2  0
 14 17  1  0
 17 18  1  0
 18 19  2  0
 18 20  1  0
 20 21  2  0
 21 22  1  0
 22 23  2  0
 23 24  1  0
 24 25  1  0
 25 26  1  0
 26 27  1  0
 27 28  2  0
 23 29  1  0
 29 30  1  0
 30 31  2  0
 31 32  1  0
 32 33  2  0
 33 34  1  0
 34 35  2  0
 29 36  1  0
 36 37  2  0
  9 38  2  0
 38 39  1  0
 39 40  2  0
 40 41  1  0
 41 42  1  0
 40  3  1  0
 38  5  1  0
 16 11  1  0
 36 20  1  0
 27 22  1  0
 35 30  1  0
M  END
>  <BrandName>  (137) 


>  <Applicants>  (137) 
Ono Pharmaceutical

>  <CHEMBL_ID>  (137) 
CHEMBL5314429

>  <Canonical_Smiles>  (137) 
COC1=CC2=NC=CC(OC3C=NC(=CC=3)NC(=O)C3=CC4=C(CCCC4=O)N(C4C=CC=CC=4)C3=O)=C2C=C1OC

>  <Chirality>  (137) 
Achiral Molecule

>  <First_Approval>  (137) 
nan

>  <Phase>  (137) 
2.0

>  <SC_Patent>  (137) 
nan

>  <Synonyms>  (137) 
ONO 7475 | ONO-7475 | TAMNORZATINIB

>  <Withdrawn>  (137) 
nan

>  <Indications>  (137) 
nan

>  <Type>  (137) 
nan

>  <targets_id>  (137) 
nan

>  <Inchi>  (137) 
InChI=1S/C32H26N4O6/c1-40-28-16-21-24(17-29(28)41-2)33-14-13-27(21)42-20-11-12-30(34-18-20)35-31(38)23-15-22-25(9-6-10-26(22)37)36(32(23)39)19-7-4-3-5-8-19/h3-5,7-8,11-18H,6,9-10H2,1-2H3,(H,34,35,38)

>  <stdInchikey>  (137) 
WHMMKPWGWNYYFE-UHFFFAOYSA-N

>  <csid>  (137) 
84393657

>  <Links>  (137) 
|http://www.chemspider.com/Chemical-Structure.84393657.html|https://www.ebi.ac.uk/chembldb/compound/inspect/CHEMBL5314429|https://pubchem.ncbi.nlm.nih.gov/compound/90645873|https://precision.fda.gov/uniisearch/srs/unii/0VCB95RHRV

>  <LinkName>  (137) 
|ChemSpider|ChEMBL|PubChem|FDA SRS

>  <lig_pdb_ID>  (137) 


>  <pdb_IDs>  (137) 


>  <indicationDB>  (137) 


>  <uniprotId>  (137) 


>  <indicationG2P>  (137) 


>  <MW>  (137) 
562.2

>  <HBA>  (137) 
9

>  <HBD>  (137) 
1

>  <NRB>  (137) 
7

>  <TPSA>  (137) 
121.6

>  <LogP>  (137) 
5.4

>  <RoF>  (137) 
2

>  <Melting point>  (137) 
nan

>  <Targets>  (137) 
nan

>  <Kinase families>  (137) 


>  <FDA_approved>  (137) 


$$$$
Fadraciclib
     RDKit          2D

 29 31  0  0  0  0  0  0  0  0999 V2000
    5.9054    4.1504    0.0000 C   0  0  0  0  0  0  0  0  0  0  0  0
    4.4094    4.0399    0.0000 C   0  0  0  0  0  0  0  0  0  0  0  0
    3.7571    2.6892    0.0000 C   0  0  0  0  0  0  0  0  0  0  0  0
    4.6007    1.4489    0.0000 C   0  0  0  0  0  0  0  0  0  0  0  0
    6.0967    1.5594    0.0000 C   0  0  0  0  0  0  0  0  0  0  0  0
    3.9484    0.0982    0.0000 O   0  0  0  0  0  0  0  0  0  0  0  0
    2.2612    2.5787    0.0000 N   0  0  0  0  0  0  0  0  0  0  0  0
    1.6089    1.2280    0.0000 C   0  0  0  0  0  0  0  0  0  0  0  0
    0.1130    1.1176    0.0000 N   0  0  0  0  0  0  0  0  0  0  0  0
   -0.5394   -0.2332    0.0000 C   0  0  0  0  0  0  0  0  0  0  0  0
    0.3043   -1.4735    0.0000 C   0  0  0  0  0  0  0  0  0  0  0  0
    1.8002   -1.3630    0.0000 C   0  0  0  0  0  0  0  0  0  0  0  0
    2.4525   -0.0123    0.0000 N   0  0  0  0  0  0  0  0  0  0  0  0
    2.3675   -2.7516    0.0000 N   0  0  0  0  0  0  0  0  0  0  0  0
    1.2222   -3.7202    0.0000 C   0  0  0  0  0  0  0  0  0  0  0  0
   -0.0530   -2.9303    0.0000 N   0  0  0  0  0  0  0  0  0  0  0  0
    3.8243   -3.1088    0.0000 C   0  0  0  0  0  0  0  0  0  0  0  0
    4.2434   -4.5491    0.0000 C   0  0  0  0  0  0  0  0  0  0  0  0
    4.8621   -2.0258    0.0000 C   0  0  0  0  0  0  0  0  0  0  0  0
   -2.0353   -0.3436    0.0000 N   0  0  0  0  0  0  0  0  0  0  0  0
   -2.8789    0.8967    0.0000 C   0  0  0  0  0  0  0  0  0  0  0  0
   -4.3748    0.7862    0.0000 C   0  0  0  0  0  0  0  0  0  0  0  0
   -5.2185    2.0265    0.0000 C   0  0  0  0  0  0  0  0  0  0  0  0
   -6.7144    1.9160    0.0000 N   0  0  0  0  0  0  0  0  0  0  0  0
   -7.3667    0.5653    0.0000 C   0  0  0  0  0  0  0  0  0  0  0  0
   -6.5231   -0.6750    0.0000 C   0  0  0  0  0  0  0  0  0  0  0  0
   -5.0271   -0.5645    0.0000 C   0  0  0  0  0  0  0  0  0  0  0  0
   -4.1835   -1.8048    0.0000 C   0  0  0  0  0  0  0  0  0  0  0  0
   -8.8626    0.4548    0.0000 C   0  0  0  0  0  0  0  0  0  0  0  0
  1  2  1  0
  3  2  1  1
  3  4  1  0
  4  5  1  1
  4  6  1  0
  3  7  1  0
  7  8  1  0
  8  9  2  0
  9 10  1  0
 10 11  2  0
 11 12  1  0
 12 13  2  0
 12 14  1  0
 14 15  1  0
 15 16  2  0
 14 17  1  0
 17 18  1  0
 17 19  1  0
 10 20  1  0
 20 21  1  0
 21 22  1  0
 22 23  2  0
 23 24  1  0
 24 25  2  0
 25 26  1  0
 26 27  2  0
 27 28  1  0
 25 29  1  0
 13  8  1  0
 16 11  1  0
 27 22  1  0
M  END
>  <BrandName>  (138) 


>  <Applicants>  (138) 
Cyclacel pharmaceuticals

>  <CHEMBL_ID>  (138) 
CHEMBL4297930

>  <Canonical_Smiles>  (138) 
CC[C@@H]([C@@H](C)O)Nc1nc(c2c(n1)n(cn2)C(C)C)NCc3cnc(cc3C)C

>  <Chirality>  (138) 
Unknown

>  <First_Approval>  (138) 
nan

>  <Phase>  (138) 
2.0

>  <SC_Patent>  (138) 
nan

>  <Synonyms>  (138) 
|CYC065

>  <Withdrawn>  (138) 
{''}

>  <Indications>  (138) 
nan

>  <Type>  (138) 
nan

>  <targets_id>  (138) 
nan

>  <Inchi>  (138) 
InChI=1S/C21H31N7O/c1-7-17(15(6)29)25-21-26-19(18-20(27-21)28(11-24-18)12(2)3)23-10-16-9-22-14(5)8-13(16)4/h8-9,11-12,15,17,29H,7,10H2,1-6H3,(H2,23,25,26,27)/t15-,17+/m1/s1

>  <stdInchikey>  (138) 
DLPIYBKBHMZCJI-WBVHZDCISA-N

>  <csid>  (138) 
34957698

>  <Links>  (138) 
|http://www.chemspider.com/Chemical-Structure.34957698.html|https://www.ebi.ac.uk/chembldb/compound/inspect/CHEMBL3655762|https://pubchem.ncbi.nlm.nih.gov/compound/24983461|https://go.drugbank.com/drugs/DB15425|https://www.guidetopharmacology.org/GRAC/LigandDisplayForward?10461|https://zinc15.docking.org/substances/ZINC000096177788|https://precision.fda.gov/uniisearch/srs/unii/YET2XNU791|https://www.bindingdb.org/bind/chemsearch/marvin/MolStructure.jsp?monomerid=106950

>  <LinkName>  (138) 
|ChemSpider|ChEMBL|PubChem|DrugBank|Guide to Pharmacology|ZINC|FDA SRS|BindingDB

>  <lig_pdb_ID>  (138) 


>  <pdb_IDs>  (138) 


>  <indicationDB>  (138) 


>  <uniprotId>  (138) 


>  <indicationG2P>  (138) 
None

>  <MW>  (138) 
397.3

>  <HBA>  (138) 
8

>  <HBD>  (138) 
3

>  <NRB>  (138) 
8

>  <TPSA>  (138) 
100.8

>  <LogP>  (138) 
3.6

>  <RoF>  (138) 
0

>  <Melting point>  (138) 
nan

>  <Targets>  (138) 
nan

>  <Kinase families>  (138) 


>  <FDA_approved>  (138) 


$$$$
Fexagratinib
     RDKit          2D

 34 37  0  0  0  0  0  0  0  0999 V2000
    7.7786   -4.7792    0.0000 C   0  0  0  0  0  0  0  0  0  0  0  0
    8.8085   -3.6886    0.0000 O   0  0  0  0  0  0  0  0  0  0  0  0
    8.3790   -2.2514    0.0000 C   0  0  0  0  0  0  0  0  0  0  0  0
    6.9195   -1.9048    0.0000 C   0  0  0  0  0  0  0  0  0  0  0  0
    6.4900   -0.4676    0.0000 C   0  0  0  0  0  0  0  0  0  0  0  0
    5.0306   -0.1210    0.0000 C   0  0  0  0  0  0  0  0  0  0  0  0
    4.6010    1.3161    0.0000 C   0  0  0  0  0  0  0  0  0  0  0  0
    3.1416    1.6627    0.0000 C   0  0  0  0  0  0  0  0  0  0  0  0
    2.0034    0.6858    0.0000 C   0  0  0  0  0  0  0  0  0  0  0  0
    0.7225    1.4664    0.0000 C   0  0  0  0  0  0  0  0  0  0  0  0
   -0.6619    0.8890    0.0000 N   0  0  0  0  0  0  0  0  0  0  0  0
   -1.8541    1.7992    0.0000 C   0  0  0  0  0  0  0  0  0  0  0  0
   -1.6620    3.2868    0.0000 O   0  0  0  0  0  0  0  0  0  0  0  0
   -3.2385    1.2218    0.0000 C   0  0  0  0  0  0  0  0  0  0  0  0
   -4.4308    2.1320    0.0000 C   0  0  0  0  0  0  0  0  0  0  0  0
   -5.8152    1.5546    0.0000 C   0  0  0  0  0  0  0  0  0  0  0  0
   -6.0074    0.0669    0.0000 C   0  0  0  0  0  0  0  0  0  0  0  0
   -7.3918   -0.5105    0.0000 N   0  0  0  0  0  0  0  0  0  0  0  0
   -8.5840    0.3997    0.0000 C   0  0  0  0  0  0  0  0  0  0  0  0
   -9.9684   -0.1777    0.0000 C   0  0  0  0  0  0  0  0  0  0  0  0
  -11.1607    0.7325    0.0000 C   0  0  0  0  0  0  0  0  0  0  0  0
  -10.1606   -1.6653    0.0000 N   0  0  0  0  0  0  0  0  0  0  0  0
   -8.9683   -2.5756    0.0000 C   0  0  0  0  0  0  0  0  0  0  0  0
   -9.1605   -4.0632    0.0000 C   0  0  0  0  0  0  0  0  0  0  0  0
   -7.5839   -1.9981    0.0000 C   0  0  0  0  0  0  0  0  0  0  0  0
   -4.8151   -0.8433    0.0000 C   0  0  0  0  0  0  0  0  0  0  0  0
   -3.4307   -0.2659    0.0000 C   0  0  0  0  0  0  0  0  0  0  0  0
    1.0691    2.9258    0.0000 N   0  0  0  0  0  0  0  0  0  0  0  0
    2.5642    3.0471    0.0000 N   0  0  0  0  0  0  0  0  0  0  0  0
    7.5199    0.6230    0.0000 C   0  0  0  0  0  0  0  0  0  0  0  0
    8.9793    0.2764    0.0000 C   0  0  0  0  0  0  0  0  0  0  0  0
   10.0091    1.3670    0.0000 O   0  0  0  0  0  0  0  0  0  0  0  0
   11.4685    1.0204    0.0000 C   0  0  0  0  0  0  0  0  0  0  0  0
    9.4088   -1.1608    0.0000 C   0  0  0  0  0  0  0  0  0  0  0  0
  1  2  1  0
  2  3  1  0
  3  4  2  0
  4  5  1  0
  5  6  1  0
  6  7  1  0
  7  8  1  0
  8  9  2  0
  9 10  1  0
 10 11  1  0
 11 12  1  0
 12 13  2  0
 12 14  1  0
 14 15  2  0
 15 16  1  0
 16 17  2  0
 17 18  1  0
 18 19  1  0
 19 20  1  0
 20 21  1  0
 20 22  1  0
 22 23  1  0
 23 24  1  0
 23 25  1  0
 17 26  1  0
 26 27  2  0
 10 28  2  0
 28 29  1  0
  5 30  2  0
 30 31  1  0
 31 32  1  0
 32 33  1  0
 31 34  2  0
 34  3  1  0
 29  8  1  0
 27 14  1  0
 25 18  1  0
M  END
>  <BrandName>  (139) 


>  <Applicants>  (139) 
Astrazeneca

>  <CHEMBL_ID>  (139) 
CHEMBL3348846

>  <Canonical_Smiles>  (139) 
COc1cc(CCc2cc(NC(=O)c3ccc(N4CC(C)NC(C)C4)cc3)n[nH]2)cc(OC)c1

>  <Chirality>  (139) 
Unknown

>  <First_Approval>  (139) 
nan

>  <Phase>  (139) 
2.0

>  <SC_Patent>  (139) 
nan

>  <Synonyms>  (139) 
ABSK-091 | ABSK091 | AZD 4547 | AZD-4547 | AZD4547 | KB-74810

>  <Withdrawn>  (139) 
{''}

>  <Indications>  (139) 
nan

>  <Type>  (139) 
nan

>  <targets_id>  (139) 
nan

>  <Inchi>  (139) 
InChI=1S/C26H33N5O3/c1-17-15-31(16-18(2)27-17)22-9-6-20(7-10-22)26(32)28-25-13-21(29-30-25)8-5-19-11-23(33-3)14-24(12-19)34-4/h6-7,9-14,17-18,27H,5,8,15-16H2,1-4H3,(H2,28,29,30,32)/t17-,18+

>  <stdInchikey>  (139) 
VRQMAABPASPXMW-UHFFFAOYSA-N

>  <csid>  (139) 
26333104

>  <Links>  (139) 
|http://www.chemspider.com/Chemical-Structure.26333104.html|https://www.ebi.ac.uk/chembldb/compound/inspect/CHEMBL3184679|https://pubchem.ncbi.nlm.nih.gov/compound/57430866

>  <LinkName>  (139) 
|ChemSpider|ChEMBL|PubChem

>  <lig_pdb_ID>  (139) 


>  <pdb_IDs>  (139) 


>  <indicationDB>  (139) 


>  <uniprotId>  (139) 


>  <indicationG2P>  (139) 


>  <MW>  (139) 
463.3

>  <HBA>  (139) 
6

>  <HBD>  (139) 
3

>  <NRB>  (139) 
8

>  <TPSA>  (139) 
91.5

>  <LogP>  (139) 
3.7

>  <RoF>  (139) 
0

>  <Melting point>  (139) 
nan

>  <Targets>  (139) 
nan

>  <Kinase families>  (139) 


>  <FDA_approved>  (139) 


$$$$
Foretinib
     RDKit          2D

 46 51  0  0  0  0  0  0  0  0999 V2000
    6.8697    3.4256    0.0000 C   0  0  0  0  0  0  0  0  0  0  0  0
    5.3739    3.3144    0.0000 O   0  0  0  0  0  0  0  0  0  0  0  0
    4.7222    1.9633    0.0000 C   0  0  0  0  0  0  0  0  0  0  0  0
    3.2264    1.8521    0.0000 C   0  0  0  0  0  0  0  0  0  0  0  0
    2.5747    0.5011    0.0000 C   0  0  0  0  0  0  0  0  0  0  0  0
    1.0788    0.3899    0.0000 C   0  0  0  0  0  0  0  0  0  0  0  0
    0.4272   -0.9612    0.0000 C   0  0  0  0  0  0  0  0  0  0  0  0
    1.2714   -2.2011    0.0000 C   0  0  0  0  0  0  0  0  0  0  0  0
    2.7673   -2.0899    0.0000 N   0  0  0  0  0  0  0  0  0  0  0  0
    3.4189   -0.7388    0.0000 C   0  0  0  0  0  0  0  0  0  0  0  0
    4.9148   -0.6276    0.0000 C   0  0  0  0  0  0  0  0  0  0  0  0
    5.5665    0.7235    0.0000 C   0  0  0  0  0  0  0  0  0  0  0  0
    7.0623    0.8346    0.0000 O   0  0  0  0  0  0  0  0  0  0  0  0
    7.9066   -0.4052    0.0000 C   0  0  0  0  0  0  0  0  0  0  0  0
    9.4024   -0.2940    0.0000 C   0  0  0  0  0  0  0  0  0  0  0  0
   10.2467   -1.5339    0.0000 C   0  0  0  0  0  0  0  0  0  0  0  0
   11.7425   -1.4227    0.0000 N   0  0  0  0  0  0  0  0  0  0  0  0
   12.5868   -2.6626    0.0000 C   0  0  0  0  0  0  0  0  0  0  0  0
   14.0827   -2.5514    0.0000 C   0  0  0  0  0  0  0  0  0  0  0  0
   14.7343   -1.2003    0.0000 O   0  0  0  0  0  0  0  0  0  0  0  0
   13.8901    0.0396    0.0000 C   0  0  0  0  0  0  0  0  0  0  0  0
   12.3942   -0.0716    0.0000 C   0  0  0  0  0  0  0  0  0  0  0  0
    0.2346    1.6297    0.0000 O   0  0  0  0  0  0  0  0  0  0  0  0
   -1.2613    1.5185    0.0000 C   0  0  0  0  0  0  0  0  0  0  0  0
   -2.1055    2.7584    0.0000 C   0  0  0  0  0  0  0  0  0  0  0  0
   -3.6014    2.6472    0.0000 C   0  0  0  0  0  0  0  0  0  0  0  0
   -4.2530    1.2962    0.0000 C   0  0  0  0  0  0  0  0  0  0  0  0
   -3.4088    0.0563    0.0000 C   0  0  0  0  0  0  0  0  0  0  0  0
   -1.9129    0.1675    0.0000 C   0  0  0  0  0  0  0  0  0  0  0  0
   -1.0687   -1.0724    0.0000 F   0  0  0  0  0  0  0  0  0  0  0  0
   -5.7489    1.1850    0.0000 N   0  0  0  0  0  0  0  0  0  0  0  0
   -6.5931    2.4248    0.0000 C   0  0  0  0  0  0  0  0  0  0  0  0
   -5.9415    3.7759    0.0000 O   0  0  0  0  0  0  0  0  0  0  0  0
   -8.0890    2.3136    0.0000 C   0  0  0  0  0  0  0  0  0  0  0  0
   -9.5327    2.7208    0.0000 C   0  0  0  0  0  0  0  0  0  0  0  0
   -8.4583    3.7675    0.0000 C   0  0  0  0  0  0  0  0  0  0  0  0
   -8.2392    0.8212    0.0000 C   0  0  0  0  0  0  0  0  0  0  0  0
   -7.0219   -0.0552    0.0000 O   0  0  0  0  0  0  0  0  0  0  0  0
   -9.6069    0.2051    0.0000 N   0  0  0  0  0  0  0  0  0  0  0  0
   -9.7571   -1.2874    0.0000 C   0  0  0  0  0  0  0  0  0  0  0  0
  -11.1248   -1.9035    0.0000 C   0  0  0  0  0  0  0  0  0  0  0  0
  -11.2750   -3.3960    0.0000 C   0  0  0  0  0  0  0  0  0  0  0  0
  -10.0576   -4.2723    0.0000 C   0  0  0  0  0  0  0  0  0  0  0  0
   -8.6900   -3.6562    0.0000 C   0  0  0  0  0  0  0  0  0  0  0  0
   -8.5397   -2.1637    0.0000 C   0  0  0  0  0  0  0  0  0  0  0  0
  -10.2079   -5.7648    0.0000 F   0  0  0  0  0  0  0  0  0  0  0  0
  1  2  1  0
  2  3  1  0
  3  4  2  0
  4  5  1  0
  5  6  2  0
  6  7  1  0
  7  8  2  0
  8  9  1  0
  9 10  2  0
 10 11  1  0
 11 12  2  0
 12 13  1  0
 13 14  1  0
 14 15  1  0
 15 16  1  0
 16 17  1  0
 17 18  1  0
 18 19  1  0
 19 20  1  0
 20 21  1  0
 21 22  1  0
  6 23  1  0
 23 24  1  0
 24 25  2  0
 25 26  1  0
 26 27  2  0
 27 28  1  0
 28 29  2  0
 29 30  1  0
 27 31  1  0
 31 32  1  0
 32 33  2  0
 32 34  1  0
 34 35  1  0
 35 36  1  0
 34 37  1  0
 37 38  2  0
 37 39  1  0
 39 40  1  0
 40 41  2  0
 41 42  1  0
 42 43  2  0
 43 44  1  0
 44 45  2  0
 43 46  1  0
 12  3  1  0
 10  5  1  0
 22 17  1  0
 29 24  1  0
 36 34  1  0
 45 40  1  0
M  END
>  <BrandName>  (140) 


>  <Applicants>  (140) 
GlaxoSmithKline

>  <CHEMBL_ID>  (140) 
CHEMBL1230609

>  <Canonical_Smiles>  (140) 
COc1cc2c(ccnc2cc1OCCCN3CCOCC3)Oc4ccc(cc4F)NC(=O)C5(CC5)C(=O)Nc6ccc(cc6)F

>  <Chirality>  (140) 
Achiral Molecule

>  <First_Approval>  (140) 
nan

>  <Phase>  (140) 
2.0

>  <SC_Patent>  (140) 
nan

>  <Synonyms>  (140) 
EXEL-2880 | FORETINIB | GSK-089 | GSK-1363089 | GSK-1363089G | GSK089 | GSK1363089 | GSK1363089G | XL-880 | XL880

>  <Withdrawn>  (140) 
{'', 'Study NCT02034097 in unknown country was Withdrawn during PHASE2 because GSK has decided to terminate the Product Development of foretinib and conclude our Development Agreement with Exelixis'}

>  <Indications>  (140) 
nan

>  <Type>  (140) 
2

>  <targets_id>  (140) 
P08581|P35968

>  <Inchi>  (140) 
InChI=1S/C34H34F2N4O6/c1-43-30-20-25-27(21-31(30)45-16-2-13-40-14-17-44-18-15-40)37-12-9-28(25)46-29-8-7-24(19-26(29)36)39-33(42)34(10-11-34)32(41)38-23-5-3-22(35)4-6-23/h3-9,12,19-21H,2,10-11,13-18H2,1H3,(H,38,41)(H,39,42)

>  <stdInchikey>  (140) 
CXQHYVUVSFXTMY-UHFFFAOYSA-N

>  <csid>  (140) 
24608641

>  <Links>  (140) 
|http://www.chemspider.com/Chemical-Structure.24608641.html|https://www.ebi.ac.uk/chembldb/compound/inspect/CHEMBL1230609|https://pubchem.ncbi.nlm.nih.gov/compound/42642645|https://go.drugbank.com/drugs/DB12307|https://www.rcsb.org/ligand/88Z|https://www.ebi.ac.uk/pdbe-srv/pdbechem/chemicalCompound/show/88Z|https://www.guidetopharmacology.org/GRAC/LigandDisplayForward?5679|https://zinc15.docking.org/substances/ZINC000043204048|https://precision.fda.gov/uniisearch/srs/unii/81FH7VK1C4|https://www.bindingdb.org/bind/chemsearch/marvin/MolStructure.jsp?monomerid=50399540

>  <LinkName>  (140) 
|ChemSpider|ChEMBL|PubChem|DrugBank|RCSB|PDBe|Guide to Pharmacology|ZINC|FDA SRS|BindingDB

>  <lig_pdb_ID>  (140) 
88Z

>  <pdb_IDs>  (140) 
3lq8 5ia4 6i2y 6sd9 6sdc

>  <indicationDB>  (140) 


>  <uniprotId>  (140) 


>  <indicationG2P>  (140) 
None

>  <MW>  (140) 
632.2

>  <HBA>  (140) 
8

>  <HBD>  (140) 
2

>  <NRB>  (140) 
12

>  <TPSA>  (140) 
111.2

>  <LogP>  (140) 
5.8

>  <RoF>  (140) 
2

>  <Melting point>  (140) 
nan

>  <Targets>  (140) 
MET; KDR

>  <Kinase families>  (140) 
Tyr

>  <FDA_approved>  (140) 


$$$$
Solcitinib
     RDKit          2D

 29 33  0  0  0  0  0  0  0  0999 V2000
   -6.7790    3.7937    0.0000 C   0  0  0  0  0  0  0  0  0  0  0  0
   -5.5480    2.9365    0.0000 C   0  0  0  0  0  0  0  0  0  0  0  0
   -4.3171    2.0794    0.0000 C   0  0  0  0  0  0  0  0  0  0  0  0
   -5.1742    0.8484    0.0000 N   0  0  0  0  0  0  0  0  0  0  0  0
   -6.4052    1.7056    0.0000 C   0  0  0  0  0  0  0  0  0  0  0  0
   -4.9099   -0.6281    0.0000 C   0  0  0  0  0  0  0  0  0  0  0  0
   -6.0564   -1.5953    0.0000 O   0  0  0  0  0  0  0  0  0  0  0  0
   -3.4990   -1.1375    0.0000 C   0  0  0  0  0  0  0  0  0  0  0  0
   -3.2346   -2.6140    0.0000 C   0  0  0  0  0  0  0  0  0  0  0  0
   -1.8238   -3.1233    0.0000 C   0  0  0  0  0  0  0  0  0  0  0  0
   -0.6772   -2.1561    0.0000 C   0  0  0  0  0  0  0  0  0  0  0  0
   -0.9416   -0.6796    0.0000 C   0  0  0  0  0  0  0  0  0  0  0  0
   -2.3524   -0.1703    0.0000 C   0  0  0  0  0  0  0  0  0  0  0  0
    0.7337   -2.6655    0.0000 C   0  0  0  0  0  0  0  0  0  0  0  0
    0.9980   -4.1420    0.0000 C   0  0  0  0  0  0  0  0  0  0  0  0
    2.4089   -4.6513    0.0000 C   0  0  0  0  0  0  0  0  0  0  0  0
    3.5554   -3.6841    0.0000 C   0  0  0  0  0  0  0  0  0  0  0  0
    3.2911   -2.2076    0.0000 C   0  0  0  0  0  0  0  0  0  0  0  0
    1.8802   -1.6983    0.0000 N   0  0  0  0  0  0  0  0  0  0  0  0
    1.9286   -0.1991    0.0000 N   0  0  0  0  0  0  0  0  0  0  0  0
    3.3694    0.2182    0.0000 C   0  0  0  0  0  0  0  0  0  0  0  0
    4.2115   -1.0232    0.0000 N   0  0  0  0  0  0  0  0  0  0  0  0
    3.8788    1.6291    0.0000 N   0  0  0  0  0  0  0  0  0  0  0  0
    5.3553    1.8934    0.0000 C   0  0  0  0  0  0  0  0  0  0  0  0
    6.3225    0.7469    0.0000 O   0  0  0  0  0  0  0  0  0  0  0  0
    5.8646    3.3043    0.0000 C   0  0  0  0  0  0  0  0  0  0  0  0
    5.6003    4.7808    0.0000 C   0  0  0  0  0  0  0  0  0  0  0  0
    7.0111    4.2715    0.0000 C   0  0  0  0  0  0  0  0  0  0  0  0
   -4.6909    4.1675    0.0000 C   0  0  0  0  0  0  0  0  0  0  0  0
  1  2  1  0
  2  3  1  0
  3  4  1  0
  4  5  1  0
  4  6  1  0
  6  7  2  0
  6  8  1  0
  8  9  2  0
  9 10  1  0
 10 11  2  0
 11 12  1  0
 12 13  2  0
 11 14  1  0
 14 15  2  0
 15 16  1  0
 16 17  2  0
 17 18  1  0
 18 19  1  0
 19 20  1  0
 20 21  2  0
 21 22  1  0
 21 23  1  0
 23 24  1  0
 24 25  2  0
 24 26  1  0
 26 27  1  0
 27 28  1  0
  2 29  1  0
  5  2  1  0
 13  8  1  0
 19 14  1  0
 22 18  2  0
 28 26  1  0
M  END
>  <BrandName>  (141) 


>  <Applicants>  (141) 
GlaxoSmithKline

>  <CHEMBL_ID>  (141) 
CHEMBL3301606

>  <Canonical_Smiles>  (141) 
CC1(CN(C1)C(=O)c2ccc(cc2)c3cccc4n3nc(n4)NC(=O)C5CC5)C

>  <Chirality>  (141) 
Achiral Molecule

>  <First_Approval>  (141) 
nan

>  <Phase>  (141) 
2.0

>  <SC_Patent>  (141) 
nan

>  <Synonyms>  (141) 
G-154578 | G154578 | GLPG-0778 | GLPG-0788 | GLPG0778 | GSK-2586184 | GSK-2586184A | GSK2586184A | SOLCITINIB

>  <Withdrawn>  (141) 
nan

>  <Indications>  (141) 
nan

>  <Type>  (141) 
nan

>  <targets_id>  (141) 
P23458

>  <Inchi>  (141) 
InChI=1S/C22H23N5O2/c1-22(2)12-26(13-22)20(29)16-10-6-14(7-11-16)17-4-3-5-18-23-21(25-27(17)18)24-19(28)15-8-9-15/h3-7,10-11,15H,8-9,12-13H2,1-2H3,(H,24,25,28)

>  <stdInchikey>  (141) 
MPYACSQFXVMWNO-UHFFFAOYSA-N

>  <csid>  (141) 
31389944

>  <Links>  (141) 
|http://www.chemspider.com/Chemical-Structure.31389944.html|https://www.ebi.ac.uk/chembldb/compound/inspect/CHEMBL3301606|https://pubchem.ncbi.nlm.nih.gov/compound/44603362|https://www.guidetopharmacology.org/GRAC/LigandDisplayForward?9697|https://zinc15.docking.org/substances/ZINC000118401631|https://precision.fda.gov/uniisearch/srs/unii/3V7GQ1260K|https://www.bindingdb.org/bind/chemsearch/marvin/MolStructure.jsp?monomerid=128101

>  <LinkName>  (141) 
|ChemSpider|ChEMBL|PubChem|Guide to Pharmacology|ZINC|FDA SRS|BindingDB

>  <lig_pdb_ID>  (141) 


>  <pdb_IDs>  (141) 


>  <indicationDB>  (141) 


>  <uniprotId>  (141) 


>  <indicationG2P>  (141) 
None

>  <MW>  (141) 
389.2

>  <HBA>  (141) 
5

>  <HBD>  (141) 
1

>  <NRB>  (141) 
4

>  <TPSA>  (141) 
79.6

>  <LogP>  (141) 
3.2

>  <RoF>  (141) 
0

>  <Melting point>  (141) 
nan

>  <Targets>  (141) 
JAK1

>  <Kinase families>  (141) 
Tyr

>  <FDA_approved>  (141) 


$$$$
Panulisib
     RDKit          2D

 39 43  0  0  0  0  0  0  0  0999 V2000
    3.2049   -1.9866    0.0000 C   0  0  0  0  0  0  0  0  0  0  0  0
    2.5148   -3.3184    0.0000 C   0  0  0  0  0  0  0  0  0  0  0  0
    1.8247   -4.6502    0.0000 C   0  0  0  0  0  0  0  0  0  0  0  0
    3.8466   -4.0085    0.0000 C   0  0  0  0  0  0  0  0  0  0  0  0
    5.1784   -4.6987    0.0000 N   0  0  0  0  0  0  0  0  0  0  0  0
    1.1830   -2.6283    0.0000 C   0  0  0  0  0  0  0  0  0  0  0  0
   -0.0806   -3.4366    0.0000 C   0  0  0  0  0  0  0  0  0  0  0  0
   -1.4124   -2.7465    0.0000 C   0  0  0  0  0  0  0  0  0  0  0  0
   -1.4806   -1.2481    0.0000 C   0  0  0  0  0  0  0  0  0  0  0  0
   -0.2171   -0.4397    0.0000 C   0  0  0  0  0  0  0  0  0  0  0  0
    1.1147   -1.1298    0.0000 N   0  0  0  0  0  0  0  0  0  0  0  0
   -2.8125   -0.5579    0.0000 N   0  0  0  0  0  0  0  0  0  0  0  0
   -3.0370    0.9252    0.0000 C   0  0  0  0  0  0  0  0  0  0  0  0
   -2.0850    2.0844    0.0000 C   0  0  0  0  0  0  0  0  0  0  0  0
   -0.6051    1.8396    0.0000 C   0  0  0  0  0  0  0  0  0  0  0  0
    0.3468    2.9988    0.0000 C   0  0  0  0  0  0  0  0  0  0  0  0
   -0.1811    4.4029    0.0000 C   0  0  0  0  0  0  0  0  0  0  0  0
   -1.6610    4.6476    0.0000 C   0  0  0  0  0  0  0  0  0  0  0  0
   -2.6130    3.4884    0.0000 C   0  0  0  0  0  0  0  0  0  0  0  0
   -4.0929    3.7332    0.0000 N   0  0  0  0  0  0  0  0  0  0  0  0
   -5.0448    2.5740    0.0000 C   0  0  0  0  0  0  0  0  0  0  0  0
   -4.5169    1.1700    0.0000 C   0  0  0  0  0  0  0  0  0  0  0  0
   -5.2070   -0.1619    0.0000 N   0  0  0  0  0  0  0  0  0  0  0  0
   -4.1536   -1.2298    0.0000 C   0  0  0  0  0  0  0  0  0  0  0  0
   -4.3984   -2.7096    0.0000 N   0  0  0  0  0  0  0  0  0  0  0  0
   -5.8024   -3.2376    0.0000 C   0  0  0  0  0  0  0  0  0  0  0  0
   -7.2064   -3.7656    0.0000 N   0  0  0  0  0  0  0  0  0  0  0  0
   -6.6901   -0.3864    0.0000 C   0  0  0  0  0  0  0  0  0  0  0  0
    1.8267    2.7540    0.0000 C   0  0  0  0  0  0  0  0  0  0  0  0
    2.3546    1.3500    0.0000 C   0  0  0  0  0  0  0  0  0  0  0  0
    3.8345    1.1052    0.0000 C   0  0  0  0  0  0  0  0  0  0  0  0
    4.7865    2.2645    0.0000 C   0  0  0  0  0  0  0  0  0  0  0  0
    4.2585    3.6685    0.0000 N   0  0  0  0  0  0  0  0  0  0  0  0
    2.7786    3.9133    0.0000 C   0  0  0  0  0  0  0  0  0  0  0  0
    6.2664    2.0197    0.0000 N   0  0  0  0  0  0  0  0  0  0  0  0
    4.3625   -0.2988    0.0000 C   0  0  0  0  0  0  0  0  0  0  0  0
    4.8904   -1.7028    0.0000 F   0  0  0  0  0  0  0  0  0  0  0  0
    5.7665    0.2292    0.0000 F   0  0  0  0  0  0  0  0  0  0  0  0
    2.9585   -0.8267    0.0000 F   0  0  0  0  0  0  0  0  0  0  0  0
  1  2  1  0
  2  3  1  0
  2  4  1  0
  4  5  3  0
  2  6  1  0
  6  7  2  0
  7  8  1  0
  8  9  2  0
  9 10  1  0
 10 11  2  0
  9 12  1  0
 12 13  1  0
 13 14  1  0
 14 15  2  0
 15 16  1  0
 16 17  2  0
 17 18  1  0
 18 19  2  0
 19 20  1  0
 20 21  2  0
 21 22  1  0
 22 23  1  0
 23 24  1  0
 24 25  2  3
 25 26  1  0
 26 27  3  0
 23 28  1  0
 16 29  1  0
 29 30  2  0
 30 31  1  0
 31 32  2  0
 32 33  1  0
 33 34  2  0
 32 35  1  0
 31 36  1  0
 36 37  1  0
 36 38  1  0
 36 39  1  0
 11  6  1  0
 24 12  1  0
 22 13  2  0
 19 14  1  0
 34 29  1  0
M  END
>  <BrandName>  (142) 


>  <Applicants>  (142) 
Piramal Enterprises

>  <CHEMBL_ID>  (142) 
CHEMBL5095025

>  <Canonical_Smiles>  (142) 
CC(C)(C#N)c1ccc(cn1)n2c3c4cc(ccc4ncc3n(c2=NC#N)C)c5cc(c(nc5)N)C(F)(F)F

>  <Chirality>  (142) 
Single Stereoisomer

>  <First_Approval>  (142) 
nan

>  <Phase>  (142) 
2.0

>  <SC_Patent>  (142) 
nan

>  <Synonyms>  (142) 
P-7170|

>  <Withdrawn>  (142) 
nan

>  <Indications>  (142) 
nan

>  <Type>  (142) 
nan

>  <targets_id>  (142) 
P42336|P42345

>  <Inchi>  (142) 
InChI=1S/C27H20F3N9/c1-26(2,13-31)22-7-5-17(11-35-22)39-23-18-8-15(16-9-19(27(28,29)30)24(33)36-10-16)4-6-20(18)34-12-21(23)38(3)25(39)37-14-32/h4-12H,1-3H3,(H2,33,36)/b37-25+

>  <stdInchikey>  (142) 
VJLRLTSXTLICIR-UHFFFAOYSA-N

>  <csid>  (142) 
29165869

>  <Links>  (142) 
|http://www.chemspider.com/Chemical-Structure.29165869.html|https://pubchem.ncbi.nlm.nih.gov/compound/56947515|https://www.guidetopharmacology.org/GRAC/LigandDisplayForward?9916

>  <LinkName>  (142) 
|ChemSpider|PubChem|Guide to Pharmacology

>  <lig_pdb_ID>  (142) 


>  <pdb_IDs>  (142) 


>  <indicationDB>  (142) 


>  <uniprotId>  (142) 


>  <indicationG2P>  (142) 
None

>  <MW>  (142) 
527.2

>  <HBA>  (142) 
9

>  <HBD>  (142) 
1

>  <NRB>  (142) 
3

>  <TPSA>  (142) 
134.5

>  <LogP>  (142) 
4.8

>  <RoF>  (142) 
1

>  <Melting point>  (142) 
nan

>  <Targets>  (142) 
PIK3CA; MTOR

>  <Kinase families>  (142) 
Atypical

>  <FDA_approved>  (142) 


$$$$
Seralutinib
     RDKit          2D

 35 38  0  0  0  0  0  0  0  0999 V2000
  -10.7070    1.2017    0.0000 C   0  0  0  0  0  0  0  0  0  0  0  0
   -9.9229   -0.0770    0.0000 O   0  0  0  0  0  0  0  0  0  0  0  0
   -8.4234   -0.0373    0.0000 C   0  0  0  0  0  0  0  0  0  0  0  0
   -7.7080    1.2811    0.0000 C   0  0  0  0  0  0  0  0  0  0  0  0
   -6.2086    1.3208    0.0000 C   0  0  0  0  0  0  0  0  0  0  0  0
   -5.4244    0.0421    0.0000 C   0  0  0  0  0  0  0  0  0  0  0  0
   -3.9250    0.0818    0.0000 C   0  0  0  0  0  0  0  0  0  0  0  0
   -3.1409   -1.1970    0.0000 C   0  0  0  0  0  0  0  0  0  0  0  0
   -1.6414   -1.1573    0.0000 N   0  0  0  0  0  0  0  0  0  0  0  0
   -0.9260    0.1611    0.0000 C   0  0  0  0  0  0  0  0  0  0  0  0
   -1.7101    1.4399    0.0000 C   0  0  0  0  0  0  0  0  0  0  0  0
   -0.9948    2.7583    0.0000 N   0  0  0  0  0  0  0  0  0  0  0  0
    0.5047    2.7980    0.0000 C   0  0  0  0  0  0  0  0  0  0  0  0
    1.2201    4.1164    0.0000 C   0  0  0  0  0  0  0  0  0  0  0  0
    1.2888    1.5192    0.0000 C   0  0  0  0  0  0  0  0  0  0  0  0
    0.5735    0.2008    0.0000 C   0  0  0  0  0  0  0  0  0  0  0  0
    1.3576   -1.0779    0.0000 C   0  0  0  0  0  0  0  0  0  0  0  0
    2.8570   -1.0382    0.0000 C   0  0  0  0  0  0  0  0  0  0  0  0
    3.5724    0.2802    0.0000 C   0  0  0  0  0  0  0  0  0  0  0  0
    5.0719    0.3199    0.0000 N   0  0  0  0  0  0  0  0  0  0  0  0
    5.8560   -0.9588    0.0000 C   0  0  0  0  0  0  0  0  0  0  0  0
    5.1406   -2.2773    0.0000 O   0  0  0  0  0  0  0  0  0  0  0  0
    7.3555   -0.9192    0.0000 C   0  0  0  0  0  0  0  0  0  0  0  0
    8.1396   -2.1979    0.0000 C   0  0  0  0  0  0  0  0  0  0  0  0
    9.6391   -2.1582    0.0000 N   0  0  0  0  0  0  0  0  0  0  0  0
   10.3544   -0.8398    0.0000 C   0  0  0  0  0  0  0  0  0  0  0  0
    9.5703    0.4390    0.0000 C   0  0  0  0  0  0  0  0  0  0  0  0
   10.2857    1.7574    0.0000 C   0  0  0  0  0  0  0  0  0  0  0  0
    8.0708    0.3993    0.0000 C   0  0  0  0  0  0  0  0  0  0  0  0
    2.7883    1.5589    0.0000 C   0  0  0  0  0  0  0  0  0  0  0  0
   -3.2096    1.4002    0.0000 N   0  0  0  0  0  0  0  0  0  0  0  0
   -6.1398   -1.2764    0.0000 C   0  0  0  0  0  0  0  0  0  0  0  0
   -7.6393   -1.3161    0.0000 C   0  0  0  0  0  0  0  0  0  0  0  0
   -8.3546   -2.6345    0.0000 O   0  0  0  0  0  0  0  0  0  0  0  0
   -7.5705   -3.9132    0.0000 C   0  0  0  0  0  0  0  0  0  0  0  0
  1  2  1  0
  2  3  1  0
  3  4  2  0
  4  5  1  0
  5  6  2  0
  6  7  1  0
  7  8  2  0
  8  9  1  0
  9 10  2  0
 10 11  1  0
 11 12  1  0
 12 13  1  0
 13 14  1  1
 13 15  1  0
 15 16  2  0
 16 17  1  0
 17 18  2  0
 18 19  1  0
 19 20  1  0
 20 21  1  0
 21 22  2  0
 21 23  1  0
 23 24  2  0
 24 25  1  0
 25 26  2  0
 26 27  1  0
 27 28  1  0
 27 29  2  0
 19 30  2  0
 11 31  2  0
  6 32  1  0
 32 33  2  0
 33 34  1  0
 34 35  1  0
 33  3  1  0
 31  7  1  0
 30 15  1  0
 29 23  1  0
M  END
>  <BrandName>  (143) 


>  <Applicants>  (143) 
Gilead Sciences

>  <CHEMBL_ID>  (143) 
CHEMBL4650333

>  <Canonical_Smiles>  (143) 
COc1ccc(-c2cncc(N[C@@H](C)c3cccc(NC(=O)c4cncc(C)c4)c3)n2)cc1OC

>  <Chirality>  (143) 
Single Stereoisomer

>  <First_Approval>  (143) 
nan

>  <Phase>  (143) 
2.0

>  <SC_Patent>  (143) 
nan

>  <Synonyms>  (143) 
GB-002 | GB002 | PK-10571 | SERALUTINIB

>  <Withdrawn>  (143) 
nan

>  <Indications>  (143) 
nan

>  <Type>  (143) 
nan

>  <targets_id>  (143) 
nan

>  <Inchi>  (143) 
InChI=1S/C27H27N5O3/c1-17-10-21(14-28-13-17)27(33)31-22-7-5-6-19(11-22)18(2)30-26-16-29-15-23(32-26)20-8-9-24(34-3)25(12-20)35-4/h5-16,18H,1-4H3,(H,30,32)(H,31,33)/t18-/m0/s1

>  <stdInchikey>  (143) 
JHJNPOSPVGRIAN-SFHVURJKSA-N

>  <csid>  (143) 
84492190

>  <Links>  (143) 
|http://www.chemspider.com/Chemical-Structure.84492190.html|https://www.ebi.ac.uk/chembldb/compound/inspect/CHEMBL4650333|https://pubchem.ncbi.nlm.nih.gov/compound/91663352|https://go.drugbank.com/drugs/DB18072|https://www.guidetopharmacology.org/GRAC/LigandDisplayForward?10618|https://precision.fda.gov/uniisearch/srs/unii/3P63ZTE3OY

>  <LinkName>  (143) 
|ChemSpider|ChEMBL|PubChem|DrugBank|Guide to Pharmacology|FDA SRS

>  <lig_pdb_ID>  (143) 


>  <pdb_IDs>  (143) 


>  <indicationDB>  (143) 


>  <uniprotId>  (143) 


>  <indicationG2P>  (143) 
None

>  <MW>  (143) 
469.2

>  <HBA>  (143) 
7

>  <HBD>  (143) 
2

>  <NRB>  (143) 
8

>  <TPSA>  (143) 
98.3

>  <LogP>  (143) 
5.3

>  <RoF>  (143) 
1

>  <Melting point>  (143) 
nan

>  <Targets>  (143) 
nan

>  <Kinase families>  (143) 


>  <FDA_approved>  (143) 


$$$$
Mivavotinib
     RDKit          2D

 25 28  0  0  0  0  0  0  0  0999 V2000
   -2.1318   -5.2023    0.0000 C   0  0  0  0  0  0  0  0  0  0  0  0
   -2.3572   -3.7193    0.0000 N   0  0  0  0  0  0  0  0  0  0  0  0
   -1.2899   -2.6654    0.0000 C   0  0  0  0  0  0  0  0  0  0  0  0
   -1.9625   -1.3246    0.0000 C   0  0  0  0  0  0  0  0  0  0  0  0
   -1.2731    0.0076    0.0000 C   0  0  0  0  0  0  0  0  0  0  0  0
    0.2253    0.0767    0.0000 N   0  0  0  0  0  0  0  0  0  0  0  0
    0.9147    1.4089    0.0000 C   0  0  0  0  0  0  0  0  0  0  0  0
    2.4131    1.4780    0.0000 N   0  0  0  0  0  0  0  0  0  0  0  0
    3.2221    0.2149    0.0000 C   0  0  0  0  0  0  0  0  0  0  0  0
    2.5327   -1.1173    0.0000 C   0  0  0  0  0  0  0  0  0  0  0  0
    3.3418   -2.3804    0.0000 C   0  0  0  0  0  0  0  0  0  0  0  0
    4.8402   -2.3113    0.0000 C   0  0  0  0  0  0  0  0  0  0  0  0
    5.5296   -0.9791    0.0000 C   0  0  0  0  0  0  0  0  0  0  0  0
    4.7205    0.2840    0.0000 C   0  0  0  0  0  0  0  0  0  0  0  0
    5.4099    1.6162    0.0000 N   0  0  0  0  0  0  0  0  0  0  0  0
    0.1056    2.6720    0.0000 C   0  0  0  0  0  0  0  0  0  0  0  0
    0.7950    4.0042    0.0000 F   0  0  0  0  0  0  0  0  0  0  0  0
   -1.3928    2.6029    0.0000 C   0  0  0  0  0  0  0  0  0  0  0  0
   -2.0822    1.2707    0.0000 C   0  0  0  0  0  0  0  0  0  0  0  0
   -3.5622    1.5147    0.0000 C   0  0  0  0  0  0  0  0  0  0  0  0
   -4.6295    0.4607    0.0000 O   0  0  0  0  0  0  0  0  0  0  0  0
   -3.7875    2.9976    0.0000 N   0  0  0  0  0  0  0  0  0  0  0  0
   -2.4468    3.6702    0.0000 C   0  0  0  0  0  0  0  0  0  0  0  0
   -3.4455   -1.5499    0.0000 C   0  0  0  0  0  0  0  0  0  0  0  0
   -3.6894   -3.0300    0.0000 N   0  0  0  0  0  0  0  0  0  0  0  0
  1  2  1  0
  2  3  1  0
  3  4  2  0
  4  5  1  0
  5  6  2  0
  6  7  1  0
  7  8  1  0
  9  8  1  1
  9 10  1  0
 10 11  1  0
 11 12  1  0
 12 13  1  0
 13 14  1  0
 14 15  1  1
  7 16  2  0
 16 17  1  0
 16 18  1  0
 18 19  2  0
 19 20  1  0
 20 21  2  0
 20 22  1  0
 22 23  1  0
  4 24  1  0
 24 25  2  0
 25  2  1  0
 19  5  1  0
 14  9  1  0
 23 18  1  0
M  END
>  <BrandName>  (144) 


>  <Applicants>  (144) 
Takeda

>  <CHEMBL_ID>  (144) 
CHEMBL3979920

>  <Canonical_Smiles>  (144) 
Cn1cc(-c2nc(N[C@@H]3CCCC[C@@H]3N)c(F)c3c2C(=O)NC3)cn1

>  <Chirality>  (144) 
Single Stereoisomer

>  <First_Approval>  (144) 
nan

>  <Phase>  (144) 
2.0

>  <SC_Patent>  (144) 
nan

>  <Synonyms>  (144) 
CB-659 | MIVAVOTINIB | TAK-659F

>  <Withdrawn>  (144) 
{''}

>  <Indications>  (144) 
nan

>  <Type>  (144) 
nan

>  <targets_id>  (144) 
nan

>  <Inchi>  (144) 
InChI=1S/C17H21FN6O/c1-24-8-9(6-21-24)15-13-10(7-20-17(13)25)14(18)16(23-15)22-12-5-3-2-4-11(12)19/h6,8,11-12H,2-5,7,19H2,1H3,(H,20,25)(H,22,23)/t11-,12+/m0/s1

>  <stdInchikey>  (144) 
MJHOMTRKVMKCNE-NWDGAFQWSA-N

>  <csid>  (144) 
57583808

>  <Links>  (144) 
|http://www.chemspider.com/Chemical-Structure.57583808.html|https://www.ebi.ac.uk/chembldb/compound/inspect/CHEMBL3979920|https://pubchem.ncbi.nlm.nih.gov/compound/53252276|https://go.drugbank.com/drugs/DB16849|https://www.rcsb.org/ligand/7KG|https://www.ebi.ac.uk/pdbe-srv/pdbechem/chemicalCompound/show/7KG|https://www.guidetopharmacology.org/GRAC/LigandDisplayForward?9600|https://precision.fda.gov/uniisearch/srs/unii/8QR88H79VX|https://www.bindingdb.org/bind/chemsearch/marvin/MolStructure.jsp?monomerid=50204290

>  <LinkName>  (144) 
|ChemSpider|ChEMBL|PubChem|DrugBank|RCSB|PDBe|Guide to Pharmacology|FDA SRS|BindingDB

>  <lig_pdb_ID>  (144) 
7KG

>  <pdb_IDs>  (144) 
5tr6

>  <indicationDB>  (144) 


>  <uniprotId>  (144) 


>  <indicationG2P>  (144) 
None

>  <MW>  (144) 
344.2

>  <HBA>  (144) 
6

>  <HBD>  (144) 
3

>  <NRB>  (144) 
3

>  <TPSA>  (144) 
97.9

>  <LogP>  (144) 
1.5

>  <RoF>  (144) 
0

>  <Melting point>  (144) 
nan

>  <Targets>  (144) 
nan

>  <Kinase families>  (144) 


>  <FDA_approved>  (144) 


$$$$
Narazaciclib
     RDKit          2D

 32 36  0  0  0  0  0  0  0  0999 V2000
   -8.5842    2.3548    0.0000 C   0  0  0  0  0  0  0  0  0  0  0  0
   -7.3359    1.5229    0.0000 N   0  0  0  0  0  0  0  0  0  0  0  0
   -5.9914    2.1880    0.0000 C   0  0  0  0  0  0  0  0  0  0  0  0
   -4.7432    1.3561    0.0000 C   0  0  0  0  0  0  0  0  0  0  0  0
   -4.8395   -0.1408    0.0000 N   0  0  0  0  0  0  0  0  0  0  0  0
   -6.1841   -0.8058    0.0000 C   0  0  0  0  0  0  0  0  0  0  0  0
   -7.4323    0.0260    0.0000 C   0  0  0  0  0  0  0  0  0  0  0  0
   -3.5913   -0.9727    0.0000 C   0  0  0  0  0  0  0  0  0  0  0  0
   -3.6877   -2.4696    0.0000 C   0  0  0  0  0  0  0  0  0  0  0  0
   -2.4395   -3.3014    0.0000 C   0  0  0  0  0  0  0  0  0  0  0  0
   -1.0949   -2.6364    0.0000 C   0  0  0  0  0  0  0  0  0  0  0  0
   -0.9986   -1.1395    0.0000 C   0  0  0  0  0  0  0  0  0  0  0  0
   -2.2468   -0.3076    0.0000 C   0  0  0  0  0  0  0  0  0  0  0  0
    0.1533   -3.4682    0.0000 N   0  0  0  0  0  0  0  0  0  0  0  0
    1.4978   -2.8032    0.0000 C   0  0  0  0  0  0  0  0  0  0  0  0
    2.7460   -3.6351    0.0000 N   0  0  0  0  0  0  0  0  0  0  0  0
    4.0905   -2.9700    0.0000 C   0  0  0  0  0  0  0  0  0  0  0  0
    4.1868   -1.4731    0.0000 C   0  0  0  0  0  0  0  0  0  0  0  0
    5.5313   -0.8081    0.0000 C   0  0  0  0  0  0  0  0  0  0  0  0
    5.6276    0.6888    0.0000 C   0  0  0  0  0  0  0  0  0  0  0  0
    4.3794    1.5207    0.0000 C   0  0  0  0  0  0  0  0  0  0  0  0
    4.4757    3.0176    0.0000 O   0  0  0  0  0  0  0  0  0  0  0  0
    3.0349    0.8557    0.0000 N   0  0  0  0  0  0  0  0  0  0  0  0
    2.9386   -0.6413    0.0000 C   0  0  0  0  0  0  0  0  0  0  0  0
    1.5941   -1.3063    0.0000 N   0  0  0  0  0  0  0  0  0  0  0  0
    1.7867    1.6875    0.0000 C   0  0  0  0  0  0  0  0  0  0  0  0
    0.3800    1.1667    0.0000 C   0  0  0  0  0  0  0  0  0  0  0  0
   -0.5500    2.3435    0.0000 C   0  0  0  0  0  0  0  0  0  0  0  0
    0.2819    3.5917    0.0000 C   0  0  0  0  0  0  0  0  0  0  0  0
    1.7260    3.1863    0.0000 C   0  0  0  0  0  0  0  0  0  0  0  0
    6.9721    1.3539    0.0000 C   0  0  0  0  0  0  0  0  0  0  0  0
    8.3167    2.0189    0.0000 N   0  0  0  0  0  0  0  0  0  0  0  0
  1  2  1  0
  2  3  1  0
  3  4  1  0
  4  5  1  0
  5  6  1  0
  6  7  1  0
  5  8  1  0
  8  9  2  0
  9 10  1  0
 10 11  2  0
 11 12  1  0
 12 13  2  0
 11 14  1  0
 14 15  1  0
 15 16  2  0
 16 17  1  0
 17 18  2  0
 18 19  1  0
 19 20  2  0
 20 21  1  0
 21 22  2  0
 21 23  1  0
 23 24  1  0
 24 25  2  0
 23 26  1  0
 26 27  1  0
 27 28  1  0
 28 29  1  0
 29 30  1  0
 20 31  1  0
 31 32  3  0
  7  2  1  0
 13  8  1  0
 25 15  1  0
 24 18  1  0
 30 26  1  0
M  END
>  <BrandName>  (145) 


>  <Applicants>  (145) 
Onconova Therapeutics

>  <CHEMBL_ID>  (145) 
CHEMBL3115681

>  <Canonical_Smiles>  (145) 
CN1CCN(CC1)c2ccc(cc2)Nc3ncc4cc(c(=O)n(c4n3)C5CCCC5)C#N

>  <Chirality>  (145) 
Achiral Molecule

>  <First_Approval>  (145) 
nan

>  <Phase>  (145) 
2.0

>  <SC_Patent>  (145) 
nan

>  <Synonyms>  (145) 
NARAZACICLIB | ON-123300 | ON123300

>  <Withdrawn>  (145) 
{''}

>  <Indications>  (145) 
nan

>  <Type>  (145) 
nan

>  <targets_id>  (145) 
nan

>  <Inchi>  (145) 
InChI=1S/C24H27N7O/c1-29-10-12-30(13-11-29)20-8-6-19(7-9-20)27-24-26-16-18-14-17(15-25)23(32)31(22(18)28-24)21-4-2-3-5-21/h6-9,14,16,21H,2-5,10-13H2,1H3,(H,26,27,28)

>  <stdInchikey>  (145) 
VADOZMZXXRBXNY-UHFFFAOYSA-N

>  <csid>  (145) 
31140969

>  <Links>  (145) 
|http://www.chemspider.com/Chemical-Structure.31140969.html|https://www.ebi.ac.uk/chembldb/compound/inspect/CHEMBL3115681|https://pubchem.ncbi.nlm.nih.gov/compound/56649281|https://www.rcsb.org/ligand/X4H|https://www.ebi.ac.uk/pdbe-srv/pdbechem/chemicalCompound/show/X4H|https://zinc15.docking.org/substances/ZINC000103269269|https://precision.fda.gov/uniisearch/srs/unii/QJ8RO3296G|https://www.bindingdb.org/bind/chemsearch/marvin/MolStructure.jsp?monomerid=50447512

>  <LinkName>  (145) 
|ChemSpider|ChEMBL|PubChem|RCSB|PDBe|ZINC|FDA SRS|BindingDB

>  <lig_pdb_ID>  (145) 
X4H

>  <pdb_IDs>  (145) 
8uol

>  <indicationDB>  (145) 


>  <uniprotId>  (145) 


>  <indicationG2P>  (145) 


>  <MW>  (145) 
429.2

>  <HBA>  (145) 
8

>  <HBD>  (145) 
1

>  <NRB>  (145) 
4

>  <TPSA>  (145) 
90.1

>  <LogP>  (145) 
3.3

>  <RoF>  (145) 
0

>  <Melting point>  (145) 
nan

>  <Targets>  (145) 
nan

>  <Kinase families>  (145) 


>  <FDA_approved>  (145) 


$$$$
Verosudil
     RDKit          2D

 23 25  0  0  0  0  0  0  0  0999 V2000
   -4.8623   -2.2966    0.0000 C   0  0  0  0  0  0  0  0  0  0  0  0
   -3.3972   -1.9749    0.0000 N   0  0  0  0  0  0  0  0  0  0  0  0
   -2.3861   -3.0829    0.0000 C   0  0  0  0  0  0  0  0  0  0  0  0
   -2.9433   -0.5453    0.0000 C   0  0  0  0  0  0  0  0  0  0  0  0
   -3.9544    0.5627    0.0000 C   0  0  0  0  0  0  0  0  0  0  0  0
   -5.4451    0.3959    0.0000 C   0  0  0  0  0  0  0  0  0  0  0  0
   -6.0644    1.7621    0.0000 C   0  0  0  0  0  0  0  0  0  0  0  0
   -4.9565    2.7732    0.0000 S   0  0  0  0  0  0  0  0  0  0  0  0
   -3.6524    2.0320    0.0000 C   0  0  0  0  0  0  0  0  0  0  0  0
   -1.4782   -0.2236    0.0000 C   0  0  0  0  0  0  0  0  0  0  0  0
   -1.0242    1.2061    0.0000 O   0  0  0  0  0  0  0  0  0  0  0  0
   -0.4670   -1.3315    0.0000 N   0  0  0  0  0  0  0  0  0  0  0  0
    0.9981   -1.0098    0.0000 C   0  0  0  0  0  0  0  0  0  0  0  0
    2.0092   -2.1178    0.0000 C   0  0  0  0  0  0  0  0  0  0  0  0
    3.4743   -1.7961    0.0000 C   0  0  0  0  0  0  0  0  0  0  0  0
    3.9283   -0.3664    0.0000 C   0  0  0  0  0  0  0  0  0  0  0  0
    2.9171    0.7415    0.0000 C   0  0  0  0  0  0  0  0  0  0  0  0
    1.4520    0.4198    0.0000 C   0  0  0  0  0  0  0  0  0  0  0  0
    3.3711    2.1712    0.0000 C   0  0  0  0  0  0  0  0  0  0  0  0
    4.8361    2.4929    0.0000 C   0  0  0  0  0  0  0  0  0  0  0  0
    5.8473    1.3849    0.0000 N   0  0  0  0  0  0  0  0  0  0  0  0
    5.3933   -0.0447    0.0000 C   0  0  0  0  0  0  0  0  0  0  0  0
    6.4045   -1.1527    0.0000 O   0  0  0  0  0  0  0  0  0  0  0  0
  1  2  1  0
  2  3  1  0
  2  4  1  0
  4  5  1  0
  5  6  1  0
  6  7  2  0
  7  8  1  0
  8  9  1  0
  4 10  1  0
 10 11  2  0
 10 12  1  0
 12 13  1  0
 13 14  2  0
 14 15  1  0
 15 16  2  0
 16 17  1  0
 17 18  2  0
 17 19  1  0
 19 20  2  0
 20 21  1  0
 21 22  1  0
 22 23  2  0
  9  5  2  0
 18 13  1  0
 22 16  1  0
M  END
>  <BrandName>  (146) 


>  <Applicants>  (146) 
Aerie Pharmaceutical

>  <CHEMBL_ID>  (146) 
CHEMBL3545065

>  <Canonical_Smiles>  (146) 
CN(C)C(c1ccsc1)C(=O)Nc2ccc3c(c2)cc[nH]c3=O

>  <Chirality>  (146) 
Racemic Mixture

>  <First_Approval>  (146) 
nan

>  <Phase>  (146) 
2.0

>  <SC_Patent>  (146) 
nan

>  <Synonyms>  (146) 
AR-12286 | AR-12286 FREE BASE | VEROSUDIL

>  <Withdrawn>  (146) 
nan

>  <Indications>  (146) 
nan

>  <Type>  (146) 
nan

>  <targets_id>  (146) 
nan

>  <Inchi>  (146) 
InChI=1S/C17H17N3O2S/c1-20(2)15(12-6-8-23-10-12)17(22)19-13-3-4-14-11(9-13)5-7-18-16(14)21/h3-10,15H,1-2H3,(H,18,21)(H,19,22)

>  <stdInchikey>  (146) 
VDYRZXYYQMMFJW-UHFFFAOYSA-N

>  <csid>  (146) 
32742441

>  <Links>  (146) 
|http://www.chemspider.com/Chemical-Structure.32742441.html|https://www.ebi.ac.uk/chembldb/compound/inspect/CHEMBL3545065|https://pubchem.ncbi.nlm.nih.gov/compound/66906051|https://www.guidetopharmacology.org/GRAC/LigandDisplayForward?8911|https://precision.fda.gov/uniisearch/srs/unii/MAF34143WM

>  <LinkName>  (146) 
|ChemSpider|ChEMBL|PubChem|Guide to Pharmacology|FDA SRS

>  <lig_pdb_ID>  (146) 


>  <pdb_IDs>  (146) 


>  <indicationDB>  (146) 


>  <uniprotId>  (146) 


>  <indicationG2P>  (146) 
None

>  <MW>  (146) 
327.1

>  <HBA>  (146) 
4

>  <HBD>  (146) 
2

>  <NRB>  (146) 
4

>  <TPSA>  (146) 
65.2

>  <LogP>  (146) 
2.8

>  <RoF>  (146) 
0

>  <Melting point>  (146) 
nan

>  <Targets>  (146) 
nan

>  <Kinase families>  (146) 


>  <FDA_approved>  (146) 


$$$$
Crozbaciclib
     RDKit          2D

 36 41  0  0  0  0  0  0  0  0999 V2000
   -6.5168   -3.9882    0.0000 C   0  0  0  0  0  0  0  0  0  0  0  0
   -5.3572   -3.0367    0.0000 C   0  0  0  0  0  0  0  0  0  0  0  0
   -3.9058   -3.4155    0.0000 N   0  0  0  0  0  0  0  0  0  0  0  0
   -3.0970   -2.1523    0.0000 C   0  0  0  0  0  0  0  0  0  0  0  0
   -1.6171   -1.9080    0.0000 C   0  0  0  0  0  0  0  0  0  0  0  0
   -0.6655   -3.0676    0.0000 F   0  0  0  0  0  0  0  0  0  0  0  0
   -1.0886   -0.5042    0.0000 C   0  0  0  0  0  0  0  0  0  0  0  0
   -2.0401    0.6554    0.0000 C   0  0  0  0  0  0  0  0  0  0  0  0
   -1.5117    2.0592    0.0000 C   0  0  0  0  0  0  0  0  0  0  0  0
   -0.0317    2.3035    0.0000 N   0  0  0  0  0  0  0  0  0  0  0  0
    0.4968    3.7073    0.0000 C   0  0  0  0  0  0  0  0  0  0  0  0
    1.9768    3.9515    0.0000 N   0  0  0  0  0  0  0  0  0  0  0  0
    2.9283    2.7920    0.0000 C   0  0  0  0  0  0  0  0  0  0  0  0
    2.3998    1.3881    0.0000 C   0  0  0  0  0  0  0  0  0  0  0  0
    3.3513    0.2286    0.0000 C   0  0  0  0  0  0  0  0  0  0  0  0
    4.8313    0.4728    0.0000 C   0  0  0  0  0  0  0  0  0  0  0  0
    5.7828   -0.6868    0.0000 C   0  0  0  0  0  0  0  0  0  0  0  0
    5.2544   -2.0906    0.0000 C   0  0  0  0  0  0  0  0  0  0  0  0
    6.2059   -3.2502    0.0000 C   0  0  0  0  0  0  0  0  0  0  0  0
    7.6859   -3.0059    0.0000 N   0  0  0  0  0  0  0  0  0  0  0  0
    8.6374   -4.1655    0.0000 C   0  0  0  0  0  0  0  0  0  0  0  0
    8.2143   -1.6021    0.0000 C   0  0  0  0  0  0  0  0  0  0  0  0
    7.2628   -0.4425    0.0000 C   0  0  0  0  0  0  0  0  0  0  0  0
    5.3598    1.8766    0.0000 C   0  0  0  0  0  0  0  0  0  0  0  0
    4.4083    3.0362    0.0000 N   0  0  0  0  0  0  0  0  0  0  0  0
   -0.4547    4.8669    0.0000 N   0  0  0  0  0  0  0  0  0  0  0  0
   -1.9347    4.6226    0.0000 C   0  0  0  0  0  0  0  0  0  0  0  0
   -2.4632    3.2188    0.0000 C   0  0  0  0  0  0  0  0  0  0  0  0
   -3.9432    2.9745    0.0000 F   0  0  0  0  0  0  0  0  0  0  0  0
   -3.5201    0.4111    0.0000 C   0  0  0  0  0  0  0  0  0  0  0  0
   -4.0486   -0.9927    0.0000 C   0  0  0  0  0  0  0  0  0  0  0  0
   -5.4454   -1.5393    0.0000 C   0  0  0  0  0  0  0  0  0  0  0  0
   -6.8423   -2.0859    0.0000 C   0  0  0  0  0  0  0  0  0  0  0  0
   -7.7938   -0.9264    0.0000 C   0  0  0  0  0  0  0  0  0  0  0  0
   -6.9850    0.3369    0.0000 C   0  0  0  0  0  0  0  0  0  0  0  0
   -5.5336   -0.0419    0.0000 C   0  0  0  0  0  0  0  0  0  0  0  0
  1  2  1  0
  2  3  2  0
  3  4  1  0
  4  5  2  0
  5  6  1  0
  5  7  1  0
  7  8  2  0
  8  9  1  0
  9 10  2  0
 10 11  1  0
 11 12  1  0
 12 13  1  0
 13 14  2  0
 14 15  1  0
 15 16  2  0
 16 17  1  0
 17 18  1  0
 18 19  1  0
 19 20  1  0
 20 21  1  0
 20 22  1  0
 22 23  1  0
 16 24  1  0
 24 25  2  0
 11 26  2  0
 26 27  1  0
 27 28  2  0
 28 29  1  0
  8 30  1  0
 30 31  2  0
 31 32  1  0
 32 33  1  0
 33 34  1  0
 34 35  1  0
 35 36  1  0
 32  2  1  0
 31  4  1  0
 36 32  1  0
 28  9  1  0
 25 13  1  0
 23 17  1  0
M  END
>  <BrandName>  (147) 


>  <Applicants>  (147) 
Ningbo Benkang jishi Pharmaceutical Technology Co.

>  <CHEMBL_ID>  (147) 
CHEMBL4277900

>  <Canonical_Smiles>  (147) 
CC1=Nc2c(F)cc(-c3nc(Nc4ccc(C5CCN(C)CC5)cn4)ncc3F)cc2C12CCCC2

>  <Chirality>  (147) 
Achiral Molecule

>  <First_Approval>  (147) 
nan

>  <Phase>  (147) 
2.0

>  <SC_Patent>  (147) 
nan

>  <Synonyms>  (147) 
CROZBACICLIB

>  <Withdrawn>  (147) 
nan

>  <Indications>  (147) 
nan

>  <Type>  (147) 
nan

>  <targets_id>  (147) 
nan

>  <Inchi>  (147) 
InChI=1S/C28H30F2N6/c1-17-28(9-3-4-10-28)21-13-20(14-22(29)26(21)33-17)25-23(30)16-32-27(35-25)34-24-6-5-19(15-31-24)18-7-11-36(2)12-8-18/h5-6,13-16,18H,3-4,7-12H2,1-2H3,(H,31,32,34,35)

>  <stdInchikey>  (147) 
AEFFENQISAXIKE-UHFFFAOYSA-N

>  <csid>  (147) 
71117313

>  <Links>  (147) 
|http://www.chemspider.com/Chemical-Structure.71117313.html|https://www.ebi.ac.uk/chembldb/compound/inspect/CHEMBL4277900|https://pubchem.ncbi.nlm.nih.gov/compound/129202507|https://go.drugbank.com/drugs/DB18081|https://www.bindingdb.org/bind/chemsearch/marvin/MolStructure.jsp?monomerid=50464606

>  <LinkName>  (147) 
|ChemSpider|ChEMBL|PubChem|DrugBank|BindingDB

>  <lig_pdb_ID>  (147) 


>  <pdb_IDs>  (147) 


>  <indicationDB>  (147) 


>  <uniprotId>  (147) 


>  <indicationG2P>  (147) 


>  <MW>  (147) 
488.3

>  <HBA>  (147) 
6

>  <HBD>  (147) 
1

>  <NRB>  (147) 
4

>  <TPSA>  (147) 
66.3

>  <LogP>  (147) 
6.3

>  <RoF>  (147) 
1

>  <Melting point>  (147) 
nan

>  <Targets>  (147) 
nan

>  <Kinase families>  (147) 


>  <FDA_approved>  (147) 


$$$$
Resigratinib
     RDKit          2D

 38 42  0  0  0  0  0  0  0  0999 V2000
   10.5706   -0.7882    0.0000 C   0  0  0  0  0  0  0  0  0  0  0  0
    9.1026   -1.0962    0.0000 C   0  0  0  0  0  0  0  0  0  0  0  0
    8.1018    0.0211    0.0000 C   0  0  0  0  0  0  0  0  0  0  0  0
    8.5691    1.4465    0.0000 O   0  0  0  0  0  0  0  0  0  0  0  0
    6.6338   -0.2869    0.0000 N   0  0  0  0  0  0  0  0  0  0  0  0
    5.5217    0.7197    0.0000 C   0  0  0  0  0  0  0  0  0  0  0  0
    4.2207   -0.0269    0.0000 C   0  0  0  0  0  0  0  0  0  0  0  0
    2.8520    0.5868    0.0000 N   0  0  0  0  0  0  0  0  0  0  0  0
    1.5510   -0.1598    0.0000 N   0  0  0  0  0  0  0  0  0  0  0  0
    0.4389    0.8468    0.0000 C   0  0  0  0  0  0  0  0  0  0  0  0
   -1.0291    0.5388    0.0000 C   0  0  0  0  0  0  0  0  0  0  0  0
   -2.4971    0.2308    0.0000 C   0  0  0  0  0  0  0  0  0  0  0  0
   -3.9652   -0.0772    0.0000 C   0  0  0  0  0  0  0  0  0  0  0  0
   -4.9660    1.0401    0.0000 C   0  0  0  0  0  0  0  0  0  0  0  0
   -4.4987    2.4655    0.0000 F   0  0  0  0  0  0  0  0  0  0  0  0
   -6.4340    0.7321    0.0000 C   0  0  0  0  0  0  0  0  0  0  0  0
   -6.9012   -0.6933    0.0000 C   0  0  0  0  0  0  0  0  0  0  0  0
   -5.9005   -1.8106    0.0000 C   0  0  0  0  0  0  0  0  0  0  0  0
   -6.6539   -3.1077    0.0000 N   0  0  0  0  0  0  0  0  0  0  0  0
   -8.1203   -2.7920    0.0000 C   0  0  0  0  0  0  0  0  0  0  0  0
   -8.2732   -1.2998    0.0000 N   0  0  0  0  0  0  0  0  0  0  0  0
   -9.5702   -0.5464    0.0000 C   0  0  0  0  0  0  0  0  0  0  0  0
  -11.0702   -0.5425    0.0000 C   0  0  0  0  0  0  0  0  0  0  0  0
  -10.3168    0.7546    0.0000 C   0  0  0  0  0  0  0  0  0  0  0  0
   -4.4324   -1.5026    0.0000 C   0  0  0  0  0  0  0  0  0  0  0  0
   -3.4317   -2.6200    0.0000 F   0  0  0  0  0  0  0  0  0  0  0  0
    1.0526    2.2155    0.0000 C   0  0  0  0  0  0  0  0  0  0  0  0
    0.3060    3.5165    0.0000 C   0  0  0  0  0  0  0  0  0  0  0  0
    1.0594    4.8136    0.0000 N   0  0  0  0  0  0  0  0  0  0  0  0
   -1.1940    3.5205    0.0000 O   0  0  0  0  0  0  0  0  0  0  0  0
    2.5440    2.0549    0.0000 C   0  0  0  0  0  0  0  0  0  0  0  0
    3.5506    3.1669    0.0000 N   0  0  0  0  0  0  0  0  0  0  0  0
    3.0908    4.5947    0.0000 C   0  0  0  0  0  0  0  0  0  0  0  0
    4.5287   -1.4949    0.0000 C   0  0  0  0  0  0  0  0  0  0  0  0
    6.0201   -1.6556    0.0000 C   0  0  0  0  0  0  0  0  0  0  0  0
    6.7667   -2.9566    0.0000 C   0  0  0  0  0  0  0  0  0  0  0  0
    6.0133   -4.2537    0.0000 O   0  0  0  0  0  0  0  0  0  0  0  0
    6.7599   -5.5547    0.0000 C   0  0  0  0  0  0  0  0  0  0  0  0
  1  2  2  0
  2  3  1  0
  3  4  2  0
  3  5  1  0
  5  6  1  0
  6  7  1  0
  7  8  1  6
  8  9  1  0
  9 10  2  0
 10 11  1  0
 11 12  3  0
 12 13  1  0
 13 14  2  0
 14 15  1  0
 14 16  1  0
 16 17  2  0
 17 18  1  0
 18 19  1  0
 19 20  2  0
 20 21  1  0
 21 22  1  0
 22 23  1  0
 23 24  1  0
 18 25  2  0
 25 26  1  0
 10 27  1  0
 27 28  1  0
 28 29  1  0
 28 30  2  0
 27 31  2  0
 31 32  1  0
 32 33  1  0
  7 34  1  0
 34 35  1  0
 35 36  1  1
 36 37  1  0
 37 38  1  0
 35  5  1  0
 31  8  1  0
 25 13  1  0
 21 17  1  0
 24 22  1  0
M  END
>  <BrandName>  (148) 


>  <Applicants>  (148) 
('',)

>  <CHEMBL_ID>  (148) 
CHEMBL5314537

>  <Canonical_Smiles>  (148) 
C=CC(=O)N1C[C@@H](n2nc(C#Cc3c(F)cc4c(ncn4C4CC4)c3F)c(C(N)=O)c2NC)C[C@@H]1COC

>  <Chirality>  (148) 
Unknown

>  <First_Approval>  (148) 
nan

>  <Phase>  (148) 
2.0

>  <SC_Patent>  (148) 
nan

>  <Synonyms>  (148) 
RESIGRATINIB

>  <Withdrawn>  (148) 
nan

>  <Indications>  (148) 
nan

>  <Type>  (148) 
nan

>  <targets_id>  (148) 
nan

>  <Inchi>  (148) 
InChI=1S/C26H27F2N7O3/c1-4-21(36)33-11-15(9-16(33)12-38-3)35-26(30-2)22(25(29)37)19(32-35)8-7-17-18(27)10-20-24(23(17)28)31-13-34(20)14-5-6-14/h4,10,13-16,30H,1,5-6,9,11-12H2,2-3H3,(H2,29,37)/t15-,16+/m0/s1

>  <stdInchikey>  (148) 
YXVDEILMUVTDMK-JKSUJKDBSA-N

>  <csid>  (148) 
nan

>  <Links>  (148) 
|http://www.chemspider.com/Chemical-Structure.nan.html|https://www.ebi.ac.uk/chembldb/compound/inspect/CHEMBL5314537|https://pubchem.ncbi.nlm.nih.gov/compound/162381323

>  <LinkName>  (148) 
|ChemSpider|ChEMBL|PubChem

>  <lig_pdb_ID>  (148) 


>  <pdb_IDs>  (148) 


>  <indicationDB>  (148) 


>  <uniprotId>  (148) 


>  <indicationG2P>  (148) 


>  <MW>  (148) 
523.2

>  <HBA>  (148) 
8

>  <HBD>  (148) 
2

>  <NRB>  (148) 
7

>  <TPSA>  (148) 
120.3

>  <LogP>  (148) 
2.4

>  <RoF>  (148) 
1

>  <Melting point>  (148) 
nan

>  <Targets>  (148) 
nan

>  <Kinase families>  (148) 


>  <FDA_approved>  (148) 


$$$$
Allitinib
     RDKit          2D

 32 35  0  0  0  0  0  0  0  0999 V2000
  -10.1922   -3.2857    0.0000 C   0  0  0  0  0  0  0  0  0  0  0  0
   -8.6939   -3.2149    0.0000 C   0  0  0  0  0  0  0  0  0  0  0  0
   -8.0061   -1.8819    0.0000 C   0  0  0  0  0  0  0  0  0  0  0  0
   -8.8165   -0.6197    0.0000 O   0  0  0  0  0  0  0  0  0  0  0  0
   -6.5077   -1.8111    0.0000 N   0  0  0  0  0  0  0  0  0  0  0  0
   -5.8199   -0.4781    0.0000 C   0  0  0  0  0  0  0  0  0  0  0  0
   -6.6303    0.7841    0.0000 C   0  0  0  0  0  0  0  0  0  0  0  0
   -5.9425    2.1170    0.0000 C   0  0  0  0  0  0  0  0  0  0  0  0
   -4.4441    2.1878    0.0000 C   0  0  0  0  0  0  0  0  0  0  0  0
   -3.6337    0.9256    0.0000 C   0  0  0  0  0  0  0  0  0  0  0  0
   -4.3215   -0.4074    0.0000 C   0  0  0  0  0  0  0  0  0  0  0  0
   -2.1353    0.9964    0.0000 C   0  0  0  0  0  0  0  0  0  0  0  0
   -1.4475    2.3294    0.0000 N   0  0  0  0  0  0  0  0  0  0  0  0
   -2.2579    3.5916    0.0000 C   0  0  0  0  0  0  0  0  0  0  0  0
   -3.7563    3.5208    0.0000 N   0  0  0  0  0  0  0  0  0  0  0  0
   -1.3249   -0.2658    0.0000 N   0  0  0  0  0  0  0  0  0  0  0  0
    0.1735   -0.1950    0.0000 C   0  0  0  0  0  0  0  0  0  0  0  0
    0.9839   -1.4572    0.0000 C   0  0  0  0  0  0  0  0  0  0  0  0
    2.4823   -1.3864    0.0000 C   0  0  0  0  0  0  0  0  0  0  0  0
    3.1701   -0.0534    0.0000 C   0  0  0  0  0  0  0  0  0  0  0  0
    2.3597    1.2088    0.0000 C   0  0  0  0  0  0  0  0  0  0  0  0
    0.8613    1.1380    0.0000 C   0  0  0  0  0  0  0  0  0  0  0  0
    3.0475    2.5417    0.0000 Cl  0  0  0  0  0  0  0  0  0  0  0  0
    4.6684    0.0173    0.0000 O   0  0  0  0  0  0  0  0  0  0  0  0
    5.4789   -1.2449    0.0000 C   0  0  0  0  0  0  0  0  0  0  0  0
    6.9772   -1.1741    0.0000 C   0  0  0  0  0  0  0  0  0  0  0  0
    7.7877   -2.4363    0.0000 C   0  0  0  0  0  0  0  0  0  0  0  0
    9.2860   -2.3655    0.0000 C   0  0  0  0  0  0  0  0  0  0  0  0
    9.9739   -1.0325    0.0000 C   0  0  0  0  0  0  0  0  0  0  0  0
    9.1634    0.2297    0.0000 C   0  0  0  0  0  0  0  0  0  0  0  0
    7.6651    0.1589    0.0000 C   0  0  0  0  0  0  0  0  0  0  0  0
    9.8513    1.5627    0.0000 F   0  0  0  0  0  0  0  0  0  0  0  0
  1  2  2  0
  2  3  1  0
  3  4  2  0
  3  5  1  0
  5  6  1  0
  6  7  2  0
  7  8  1  0
  8  9  2  0
  9 10  1  0
 10 11  2  0
 10 12  1  0
 12 13  2  0
 13 14  1  0
 14 15  2  0
 12 16  1  0
 16 17  1  0
 17 18  2  0
 18 19  1  0
 19 20  2  0
 20 21  1  0
 21 22  2  0
 21 23  1  0
 20 24  1  0
 24 25  1  0
 25 26  1  0
 26 27  2  0
 27 28  1  0
 28 29  2  0
 29 30  1  0
 30 31  2  0
 30 32  1  0
 11  6  1  0
 15  9  1  0
 22 17  1  0
 31 26  1  0
M  END
>  <BrandName>  (149) 


>  <Applicants>  (149) 
Allist Pharmaceuticals

>  <CHEMBL_ID>  (149) 
CHEMBL1947204

>  <Canonical_Smiles>  (149) 
C=CC(=O)Nc1ccc2c(c1)c(ncn2)Nc3ccc(c(c3)Cl)OCc4cccc(c4)F

>  <Chirality>  (149) 
Achiral Molecule

>  <First_Approval>  (149) 
nan

>  <Phase>  (149) 
2.0

>  <SC_Patent>  (149) 
nan

>  <Synonyms>  (149) 
ALL-3 | ALLITINIB | ALS 1306 | AST 1306 | AST-1306 | AST1306

>  <Withdrawn>  (149) 
nan

>  <Indications>  (149) 
nan

>  <Type>  (149) 
nan

>  <targets_id>  (149) 
P04626|P00533

>  <Inchi>  (149) 
InChI=1S/C24H18ClFN4O2/c1-2-23(31)29-17-6-8-21-19(11-17)24(28-14-27-21)30-18-7-9-22(20(25)12-18)32-13-15-4-3-5-16(26)10-15/h2-12,14H,1,13H2,(H,29,31)(H,27,28,30)

>  <stdInchikey>  (149) 
MVZGYPSXNDCANY-UHFFFAOYSA-N

>  <csid>  (149) 
25027184

>  <Links>  (149) 
|http://www.chemspider.com/Chemical-Structure.25027184.html|https://www.ebi.ac.uk/chembldb/compound/inspect/CHEMBL1947204|https://pubchem.ncbi.nlm.nih.gov/compound/24739943|https://www.guidetopharmacology.org/GRAC/LigandDisplayForward?9912|https://zinc15.docking.org/substances/ZINC000052509434|https://precision.fda.gov/uniisearch/srs/unii/CX0M5RO7CY

>  <LinkName>  (149) 
|ChemSpider|ChEMBL|PubChem|Guide to Pharmacology|ZINC|FDA SRS

>  <lig_pdb_ID>  (149) 


>  <pdb_IDs>  (149) 


>  <indicationDB>  (149) 


>  <uniprotId>  (149) 


>  <indicationG2P>  (149) 
None

>  <MW>  (149) 
448.1

>  <HBA>  (149) 
5

>  <HBD>  (149) 
2

>  <NRB>  (149) 
7

>  <TPSA>  (149) 
76.1

>  <LogP>  (149) 
5.9

>  <RoF>  (149) 
1

>  <Melting point>  (149) 
nan

>  <Targets>  (149) 
ERBB2; EGFR

>  <Kinase families>  (149) 
Tyr

>  <FDA_approved>  (149) 


$$$$
Decernotinib
     RDKit          2D

 28 30  0  0  0  0  0  0  0  0999 V2000
   -3.4226    0.6104    0.0000 C   0  0  0  0  0  0  0  0  0  0  0  0
   -2.1004   -0.0980    0.0000 C   0  0  0  0  0  0  0  0  0  0  0  0
   -2.0527   -1.5972    0.0000 C   0  0  0  0  0  0  0  0  0  0  0  0
   -2.0050   -3.0964    0.0000 C   0  0  0  0  0  0  0  0  0  0  0  0
   -3.5520   -1.6449    0.0000 C   0  0  0  0  0  0  0  0  0  0  0  0
   -4.2603   -2.9671    0.0000 O   0  0  0  0  0  0  0  0  0  0  0  0
   -4.3429   -0.3704    0.0000 N   0  0  0  0  0  0  0  0  0  0  0  0
   -5.8421   -0.4181    0.0000 C   0  0  0  0  0  0  0  0  0  0  0  0
   -6.6331    0.8565    0.0000 C   0  0  0  0  0  0  0  0  0  0  0  0
   -7.4240    2.1310    0.0000 F   0  0  0  0  0  0  0  0  0  0  0  0
   -7.9076    0.0656    0.0000 F   0  0  0  0  0  0  0  0  0  0  0  0
   -5.3585    1.6474    0.0000 F   0  0  0  0  0  0  0  0  0  0  0  0
   -0.5535   -1.5495    0.0000 N   0  0  0  0  0  0  0  0  0  0  0  0
    0.1548   -0.2273    0.0000 C   0  0  0  0  0  0  0  0  0  0  0  0
   -0.6361    1.0472    0.0000 C   0  0  0  0  0  0  0  0  0  0  0  0
    0.0722    2.3695    0.0000 C   0  0  0  0  0  0  0  0  0  0  0  0
    1.5715    2.4172    0.0000 N   0  0  0  0  0  0  0  0  0  0  0  0
    2.3624    1.1426    0.0000 C   0  0  0  0  0  0  0  0  0  0  0  0
    1.6541   -0.1796    0.0000 N   0  0  0  0  0  0  0  0  0  0  0  0
    3.8616    1.1903    0.0000 C   0  0  0  0  0  0  0  0  0  0  0  0
    4.7043    2.4313    0.0000 C   0  0  0  0  0  0  0  0  0  0  0  0
    6.1449    2.0133    0.0000 N   0  0  0  0  0  0  0  0  0  0  0  0
    6.1926    0.5141    0.0000 C   0  0  0  0  0  0  0  0  0  0  0  0
    4.7814    0.0054    0.0000 C   0  0  0  0  0  0  0  0  0  0  0  0
    4.5164   -1.4709    0.0000 C   0  0  0  0  0  0  0  0  0  0  0  0
    5.6625   -2.4387    0.0000 C   0  0  0  0  0  0  0  0  0  0  0  0
    7.0736   -1.9300    0.0000 C   0  0  0  0  0  0  0  0  0  0  0  0
    7.3386   -0.4537    0.0000 N   0  0  0  0  0  0  0  0  0  0  0  0
  1  2  1  0
  2  3  1  0
  3  4  1  6
  3  5  1  0
  5  6  2  0
  5  7  1  0
  7  8  1  0
  8  9  1  0
  9 10  1  0
  9 11  1  0
  9 12  1  0
  3 13  1  0
 13 14  1  0
 14 15  2  0
 15 16  1  0
 16 17  2  0
 17 18  1  0
 18 19  2  0
 18 20  1  0
 20 21  2  0
 21 22  1  0
 22 23  1  0
 23 24  2  0
 24 25  1  0
 25 26  2  0
 26 27  1  0
 27 28  2  0
 19 14  1  0
 24 20  1  0
 28 23  1  0
M  END
>  <BrandName>  (150) 


>  <Applicants>  (150) 
Vertex Pharmaceuticals

>  <CHEMBL_ID>  (150) 
CHEMBL3039513

>  <Canonical_Smiles>  (150) 
CC[C@](C)(C(=O)NCC(F)(F)F)Nc1ccnc(n1)c2c[nH]c3c2cccn3

>  <Chirality>  (150) 
Single Stereoisomer

>  <First_Approval>  (150) 
nan

>  <Phase>  (150) 
2.0

>  <SC_Patent>  (150) 
nan

>  <Synonyms>  (150) 
ADELATINIB | DECERNOTINIB | VRT-831509 | VX-509

>  <Withdrawn>  (150) 
nan

>  <Indications>  (150) 
nan

>  <Type>  (150) 
1

>  <targets_id>  (150) 
P52333

>  <Inchi>  (150) 
InChI=1S/C18H19F3N6O/c1-3-17(2,16(28)25-10-18(19,20)21)27-13-6-8-23-15(26-13)12-9-24-14-11(12)5-4-7-22-14/h4-9H,3,10H2,1-2H3,(H,22,24)(H,25,28)(H,23,26,27)/t17-/m1/s1

>  <stdInchikey>  (150) 
ASUGUQWIHMTFJL-QGZVFWFLSA-N

>  <csid>  (150) 
30843790

>  <Links>  (150) 
|http://www.chemspider.com/Chemical-Structure.30843790.html|https://www.ebi.ac.uk/chembldb/compound/inspect/CHEMBL3039513|https://pubchem.ncbi.nlm.nih.gov/compound/59422203|https://go.drugbank.com/drugs/DB12566|https://www.rcsb.org/ligand/VJK|https://www.ebi.ac.uk/pdbe-srv/pdbechem/chemicalCompound/show/VJK|https://www.guidetopharmacology.org/GRAC/LigandDisplayForward?8309|https://zinc15.docking.org/substances/ZINC000096941867|https://precision.fda.gov/uniisearch/srs/unii/MZK2GP0RHK|https://www.bindingdb.org/bind/chemsearch/marvin/MolStructure.jsp?monomerid=50021655

>  <LinkName>  (150) 
|ChemSpider|ChEMBL|PubChem|DrugBank|RCSB|PDBe|Guide to Pharmacology|ZINC|FDA SRS|BindingDB

>  <lig_pdb_ID>  (150) 
VJK

>  <pdb_IDs>  (150) 
4yti

>  <indicationDB>  (150) 


>  <uniprotId>  (150) 


>  <indicationG2P>  (150) 
None

>  <MW>  (150) 
392.2

>  <HBA>  (150) 
5

>  <HBD>  (150) 
3

>  <NRB>  (150) 
6

>  <TPSA>  (150) 
95.6

>  <LogP>  (150) 
3.3

>  <RoF>  (150) 
0

>  <Melting point>  (150) 
nan

>  <Targets>  (150) 
JAK3

>  <Kinase families>  (150) 
Tyr

>  <FDA_approved>  (150) 


$$$$
Vamotinib
     RDKit          2D

 39 43  0  0  0  0  0  0  0  0999 V2000
   -5.8215    4.2215    0.0000 C   0  0  0  0  0  0  0  0  0  0  0  0
   -4.3665    3.8570    0.0000 C   0  0  0  0  0  0  0  0  0  0  0  0
   -3.3233    4.9349    0.0000 C   0  0  0  0  0  0  0  0  0  0  0  0
   -1.8683    4.5705    0.0000 C   0  0  0  0  0  0  0  0  0  0  0  0
   -1.4564    3.1281    0.0000 C   0  0  0  0  0  0  0  0  0  0  0  0
   -0.0013    2.7637    0.0000 C   0  0  0  0  0  0  0  0  0  0  0  0
    1.0418    3.8416    0.0000 O   0  0  0  0  0  0  0  0  0  0  0  0
    0.4106    1.3214    0.0000 N   0  0  0  0  0  0  0  0  0  0  0  0
    1.8657    0.9569    0.0000 C   0  0  0  0  0  0  0  0  0  0  0  0
    2.2776   -0.4854    0.0000 C   0  0  0  0  0  0  0  0  0  0  0  0
    3.7326   -0.8498    0.0000 C   0  0  0  0  0  0  0  0  0  0  0  0
    4.7758    0.2281    0.0000 C   0  0  0  0  0  0  0  0  0  0  0  0
    6.2308   -0.1364    0.0000 C   0  0  0  0  0  0  0  0  0  0  0  0
    6.6427   -1.5787    0.0000 N   0  0  0  0  0  0  0  0  0  0  0  0
    5.5996   -2.6566    0.0000 C   0  0  0  0  0  0  0  0  0  0  0  0
    6.0115   -4.0989    0.0000 C   0  0  0  0  0  0  0  0  0  0  0  0
    7.4666   -4.4634    0.0000 N   0  0  0  0  0  0  0  0  0  0  0  0
    7.8785   -5.9057    0.0000 C   0  0  0  0  0  0  0  0  0  0  0  0
    8.5097   -3.3855    0.0000 C   0  0  0  0  0  0  0  0  0  0  0  0
    8.0978   -1.9432    0.0000 C   0  0  0  0  0  0  0  0  0  0  0  0
    4.3639    1.6704    0.0000 C   0  0  0  0  0  0  0  0  0  0  0  0
    5.4070    2.7483    0.0000 C   0  0  0  0  0  0  0  0  0  0  0  0
    6.4501    3.8262    0.0000 F   0  0  0  0  0  0  0  0  0  0  0  0
    4.3291    3.7914    0.0000 F   0  0  0  0  0  0  0  0  0  0  0  0
    6.4849    1.7051    0.0000 F   0  0  0  0  0  0  0  0  0  0  0  0
    2.9088    2.0348    0.0000 C   0  0  0  0  0  0  0  0  0  0  0  0
   -2.4995    2.0502    0.0000 C   0  0  0  0  0  0  0  0  0  0  0  0
   -3.9546    2.4147    0.0000 C   0  0  0  0  0  0  0  0  0  0  0  0
   -4.9977    1.3368    0.0000 C   0  0  0  0  0  0  0  0  0  0  0  0
   -6.0408    0.2589    0.0000 C   0  0  0  0  0  0  0  0  0  0  0  0
   -7.0840   -0.8190    0.0000 C   0  0  0  0  0  0  0  0  0  0  0  0
   -8.5691   -0.6087    0.0000 N   0  0  0  0  0  0  0  0  0  0  0  0
   -9.2281   -1.9561    0.0000 N   0  0  0  0  0  0  0  0  0  0  0  0
   -8.1503   -2.9993    0.0000 C   0  0  0  0  0  0  0  0  0  0  0  0
   -8.2042   -4.4983    0.0000 C   0  0  0  0  0  0  0  0  0  0  0  0
   -6.9330   -5.2945    0.0000 C   0  0  0  0  0  0  0  0  0  0  0  0
   -5.6078   -4.5918    0.0000 C   0  0  0  0  0  0  0  0  0  0  0  0
   -5.5539   -3.0927    0.0000 C   0  0  0  0  0  0  0  0  0  0  0  0
   -6.8251   -2.2965    0.0000 N   0  0  0  0  0  0  0  0  0  0  0  0
  1  2  1  0
  2  3  2  0
  3  4  1  0
  4  5  2  0
  5  6  1  0
  6  7  2  0
  6  8  1  0
  8  9  1  0
  9 10  2  0
 10 11  1  0
 11 12  2  0
 12 13  1  0
 13 14  1  0
 14 15  1  0
 15 16  1  0
 16 17  1  0
 17 18  1  0
 17 19  1  0
 19 20  1  0
 12 21  1  0
 21 22  1  0
 22 23  1  0
 22 24  1  0
 22 25  1  0
 21 26  2  0
  5 27  1  0
 27 28  2  0
 28 29  1  0
 29 30  3  0
 30 31  1  0
 31 32  2  0
 32 33  1  0
 33 34  2  0
 34 35  1  0
 35 36  2  0
 36 37  1  0
 37 38  2  0
 38 39  1  0
 28  2  1  0
 39 31  1  0
 26  9  1  0
 39 34  1  0
 20 14  1  0
M  END
>  <BrandName>  (151) 


>  <Applicants>  (151) 
Fusion Pharma

>  <CHEMBL_ID>  (151) 
CHEMBL4297478

>  <Canonical_Smiles>  (151) 
Cc1ccc(C(=O)Nc2ccc(CN3CCN(C)CC3)c(C(F)(F)F)c2)cc1C#Cc1nnc2ccccn12

>  <Chirality>  (151) 
Achiral Molecule

>  <First_Approval>  (151) 
nan

>  <Phase>  (151) 
2.0

>  <SC_Patent>  (151) 
nan

>  <Synonyms>  (151) 
PF-114 | VAMOTINIB

>  <Withdrawn>  (151) 
nan

>  <Indications>  (151) 
nan

>  <Type>  (151) 
nan

>  <targets_id>  (151) 
nan

>  <Inchi>  (151) 
InChI=1S/C29H27F3N6O/c1-20-6-7-22(17-21(20)9-11-27-35-34-26-5-3-4-12-38(26)27)28(39)33-24-10-8-23(25(18-24)29(30,31)32)19-37-15-13-36(2)14-16-37/h3-8,10,12,17-18H,13-16,19H2,1-2H3,(H,33,39)

>  <stdInchikey>  (151) 
SLIVDYMORZGPLW-UHFFFAOYSA-N

>  <csid>  (151) 
68007089

>  <Links>  (151) 
|http://www.chemspider.com/Chemical-Structure.68007089.html|https://www.ebi.ac.uk/chembldb/compound/inspect/CHEMBL4297478|https://pubchem.ncbi.nlm.nih.gov/compound/71475839|https://go.drugbank.com/drugs/DB15396|https://www.guidetopharmacology.org/GRAC/LigandDisplayForward?9792|https://precision.fda.gov/uniisearch/srs/unii/I8C3R768IZ|https://www.bindingdb.org/bind/chemsearch/marvin/MolStructure.jsp?monomerid=260151

>  <LinkName>  (151) 
|ChemSpider|ChEMBL|PubChem|DrugBank|Guide to Pharmacology|FDA SRS|BindingDB

>  <lig_pdb_ID>  (151) 


>  <pdb_IDs>  (151) 


>  <indicationDB>  (151) 


>  <uniprotId>  (151) 


>  <indicationG2P>  (151) 
None

>  <MW>  (151) 
532.2

>  <HBA>  (151) 
6

>  <HBD>  (151) 
1

>  <NRB>  (151) 
4

>  <TPSA>  (151) 
65.8

>  <LogP>  (151) 
4.5

>  <RoF>  (151) 
1

>  <Melting point>  (151) 
nan

>  <Targets>  (151) 
nan

>  <Kinase families>  (151) 


>  <FDA_approved>  (151) 


$$$$
Uplarafenib
     RDKit          2D

 34 37  0  0  0  0  0  0  0  0999 V2000
   -7.4127    4.5758    0.0000 C   0  0  0  0  0  0  0  0  0  0  0  0
   -6.5807    3.3277    0.0000 C   0  0  0  0  0  0  0  0  0  0  0  0
   -7.2456    1.9831    0.0000 C   0  0  0  0  0  0  0  0  0  0  0  0
   -6.4135    0.7351    0.0000 S   0  0  0  0  0  0  0  0  0  0  0  0
   -5.1654    1.5671    0.0000 O   0  0  0  0  0  0  0  0  0  0  0  0
   -7.6616   -0.0970    0.0000 O   0  0  0  0  0  0  0  0  0  0  0  0
   -5.5815   -0.5130    0.0000 N   0  0  0  0  0  0  0  0  0  0  0  0
   -4.0846   -0.4165    0.0000 C   0  0  0  0  0  0  0  0  0  0  0  0
   -3.4197    0.9281    0.0000 C   0  0  0  0  0  0  0  0  0  0  0  0
   -1.9229    1.0246    0.0000 C   0  0  0  0  0  0  0  0  0  0  0  0
   -1.2580    2.3692    0.0000 F   0  0  0  0  0  0  0  0  0  0  0  0
   -1.0908   -0.2235    0.0000 C   0  0  0  0  0  0  0  0  0  0  0  0
    0.4061   -0.1270    0.0000 F   0  0  0  0  0  0  0  0  0  0  0  0
   -1.7557   -1.5681    0.0000 C   0  0  0  0  0  0  0  0  0  0  0  0
   -0.9236   -2.8162    0.0000 C   0  0  0  0  0  0  0  0  0  0  0  0
   -1.5885   -4.1608    0.0000 O   0  0  0  0  0  0  0  0  0  0  0  0
    0.5732   -2.7197    0.0000 C   0  0  0  0  0  0  0  0  0  0  0  0
    1.4053   -3.9677    0.0000 C   0  0  0  0  0  0  0  0  0  0  0  0
    2.9022   -3.8712    0.0000 C   0  0  0  0  0  0  0  0  0  0  0  0
    3.5670   -2.5266    0.0000 C   0  0  0  0  0  0  0  0  0  0  0  0
    5.0639   -2.4301    0.0000 N   0  0  0  0  0  0  0  0  0  0  0  0
    5.7288   -1.0855    0.0000 C   0  0  0  0  0  0  0  0  0  0  0  0
    4.8967    0.1626    0.0000 C   0  0  0  0  0  0  0  0  0  0  0  0
    5.5616    1.5072    0.0000 N   0  0  0  0  0  0  0  0  0  0  0  0
    7.0585    1.6037    0.0000 C   0  0  0  0  0  0  0  0  0  0  0  0
    7.7234    2.9483    0.0000 C   0  0  0  0  0  0  0  0  0  0  0  0
    6.8913    4.1964    0.0000 O   0  0  0  0  0  0  0  0  0  0  0  0
    5.3944    4.0999    0.0000 C   0  0  0  0  0  0  0  0  0  0  0  0
    4.7296    2.7553    0.0000 C   0  0  0  0  0  0  0  0  0  0  0  0
    3.3999    0.0661    0.0000 N   0  0  0  0  0  0  0  0  0  0  0  0
    2.7350   -1.2785    0.0000 C   0  0  0  0  0  0  0  0  0  0  0  0
    1.2381   -1.3751    0.0000 C   0  0  0  0  0  0  0  0  0  0  0  0
   -3.2526   -1.6646    0.0000 C   0  0  0  0  0  0  0  0  0  0  0  0
   -3.9174   -3.0092    0.0000 F   0  0  0  0  0  0  0  0  0  0  0  0
  1  2  1  0
  2  3  1  0
  3  4  1  0
  4  5  2  0
  4  6  2  0
  4  7  1  0
  7  8  1  0
  8  9  2  0
  9 10  1  0
 10 11  1  0
 10 12  2  0
 12 13  1  0
 12 14  1  0
 14 15  1  0
 15 16  2  0
 15 17  1  0
 17 18  2  0
 18 19  1  0
 19 20  2  0
 20 21  1  0
 21 22  2  0
 22 23  1  0
 23 24  1  0
 24 25  1  0
 25 26  1  0
 26 27  1  0
 27 28  1  0
 28 29  1  0
 23 30  2  0
 30 31  1  0
 31 32  2  0
 14 33  2  0
 33 34  1  0
 33  8  1  0
 32 17  1  0
 31 20  1  0
 29 24  1  0
M  END
>  <BrandName>  (152) 


>  <Applicants>  (152) 
('',)

>  <CHEMBL_ID>  (152) 
CHEMBL5314547

>  <Canonical_Smiles>  (152) 
CCCS(=O)(=O)Nc1cc(F)c(F)c(C(=O)c2ccc3ncc(N4CCOCC4)nc3c2)c1F

>  <Chirality>  (152) 
Unknown

>  <First_Approval>  (152) 
nan

>  <Phase>  (152) 
2.0

>  <SC_Patent>  (152) 
nan

>  <Synonyms>  (152) 
UPLARAFENIB

>  <Withdrawn>  (152) 
nan

>  <Indications>  (152) 
nan

>  <Type>  (152) 
nan

>  <targets_id>  (152) 
nan

>  <Inchi>  (152) 
InChI=1S/C22H21F3N4O4S/c1-2-9-34(31,32)28-17-11-14(23)20(24)19(21(17)25)22(30)13-3-4-15-16(10-13)27-18(12-26-15)29-5-7-33-8-6-29/h3-4,10-12,28H,2,5-9H2,1H3

>  <stdInchikey>  (152) 
HAYBWDINAFTFCJ-UHFFFAOYSA-N

>  <csid>  (152) 
nan

>  <Links>  (152) 
|http://www.chemspider.com/Chemical-Structure.nan.html|https://www.ebi.ac.uk/chembldb/compound/inspect/CHEMBL5314547|https://pubchem.ncbi.nlm.nih.gov/compound/71506198

>  <LinkName>  (152) 
|ChemSpider|ChEMBL|PubChem

>  <lig_pdb_ID>  (152) 


>  <pdb_IDs>  (152) 


>  <indicationDB>  (152) 


>  <uniprotId>  (152) 


>  <indicationG2P>  (152) 


>  <MW>  (152) 
494.1

>  <HBA>  (152) 
7

>  <HBD>  (152) 
1

>  <NRB>  (152) 
7

>  <TPSA>  (152) 
101.5

>  <LogP>  (152) 
3.3

>  <RoF>  (152) 
0

>  <Melting point>  (152) 
nan

>  <Targets>  (152) 
nan

>  <Kinase families>  (152) 


>  <FDA_approved>  (152) 


$$$$
Cenisertib
     RDKit          2D

 33 37  0  0  0  0  0  0  0  0999 V2000
    2.4709   -1.2306    0.0000 C   0  0  0  0  0  0  0  0  0  0  0  0
    2.7372    0.2456    0.0000 C   0  0  0  0  0  0  0  0  0  0  0  0
    1.5919    1.2143    0.0000 C   0  0  0  0  0  0  0  0  0  0  0  0
    1.8582    2.6904    0.0000 C   0  0  0  0  0  0  0  0  0  0  0  0
    3.2697    3.1979    0.0000 C   0  0  0  0  0  0  0  0  0  0  0  0
    4.4150    2.2292    0.0000 C   0  0  0  0  0  0  0  0  0  0  0  0
    4.1487    0.7531    0.0000 C   0  0  0  0  0  0  0  0  0  0  0  0
    5.2940   -0.2156    0.0000 N   0  0  0  0  0  0  0  0  0  0  0  0
    5.0277   -1.6918    0.0000 C   0  0  0  0  0  0  0  0  0  0  0  0
    6.1730   -2.6605    0.0000 C   0  0  0  0  0  0  0  0  0  0  0  0
    7.5845   -2.1530    0.0000 N   0  0  0  0  0  0  0  0  0  0  0  0
    7.8508   -0.6768    0.0000 C   0  0  0  0  0  0  0  0  0  0  0  0
    6.7056    0.2919    0.0000 C   0  0  0  0  0  0  0  0  0  0  0  0
    8.7298   -3.1217    0.0000 C   0  0  0  0  0  0  0  0  0  0  0  0
    0.7129    3.6591    0.0000 N   0  0  0  0  0  0  0  0  0  0  0  0
   -0.6986    3.1516    0.0000 C   0  0  0  0  0  0  0  0  0  0  0  0
   -1.8439    4.1203    0.0000 N   0  0  0  0  0  0  0  0  0  0  0  0
   -3.2554    3.6128    0.0000 C   0  0  0  0  0  0  0  0  0  0  0  0
   -3.5217    2.1367    0.0000 C   0  0  0  0  0  0  0  0  0  0  0  0
   -2.3764    1.1680    0.0000 C   0  0  0  0  0  0  0  0  0  0  0  0
   -0.9649    1.6755    0.0000 N   0  0  0  0  0  0  0  0  0  0  0  0
   -2.6427   -0.3082    0.0000 N   0  0  0  0  0  0  0  0  0  0  0  0
   -4.0543   -0.8157    0.0000 C   0  0  0  0  0  0  0  0  0  0  0  0
   -5.2945    0.0280    0.0000 C   0  0  0  0  0  0  0  0  0  0  0  0
   -4.7870   -1.3836    0.0000 C   0  0  0  0  0  0  0  0  0  0  0  0
   -5.9727   -2.3024    0.0000 C   0  0  0  0  0  0  0  0  0  0  0  0
   -4.4734   -2.2559    0.0000 C   0  0  0  0  0  0  0  0  0  0  0  0
   -3.5545   -3.4416    0.0000 C   0  0  0  0  0  0  0  0  0  0  0  0
   -2.0683   -3.2387    0.0000 O   0  0  0  0  0  0  0  0  0  0  0  0
   -4.1219   -4.8301    0.0000 N   0  0  0  0  0  0  0  0  0  0  0  0
   -7.2129   -1.4587    0.0000 C   0  0  0  0  0  0  0  0  0  0  0  0
   -6.7938   -0.0185    0.0000 C   0  0  0  0  0  0  0  0  0  0  0  0
   -4.9332    1.6292    0.0000 F   0  0  0  0  0  0  0  0  0  0  0  0
  1  2  1  0
  2  3  2  0
  3  4  1  0
  4  5  2  0
  5  6  1  0
  6  7  2  0
  7  8  1  0
  8  9  1  0
  9 10  1  0
 10 11  1  0
 11 12  1  0
 12 13  1  0
 11 14  1  0
  4 15  1  0
 15 16  1  0
 16 17  2  0
 17 18  1  0
 18 19  2  0
 19 20  1  0
 20 21  2  0
 20 22  1  0
 23 22  1  1
 23 24  1  0
 24 25  1  0
 25 26  1  0
 26 27  1  0
 27 28  1  1
 28 29  2  0
 28 30  1  0
 26 31  1  6
 31 32  2  0
 19 33  1  0
  7  2  1  0
 13  8  1  0
 21 16  1  0
 27 23  1  0
 24 32  1  6
M  END
>  <BrandName>  (153) 


>  <Applicants>  (153) 
EMD Serono

>  <CHEMBL_ID>  (153) 
CHEMBL1967878

>  <Canonical_Smiles>  (153) 
Cc1cc(ccc1N2CCN(CC2)C)Nc3ncc(c(n3)N[C@@H]4[C@@H]5C[C@H]([C@@H]4C(=O)N)C=C5)F

>  <Chirality>  (153) 
Racemic Mixture

>  <First_Approval>  (153) 
nan

>  <Phase>  (153) 
2.0

>  <SC_Patent>  (153) 
nan

>  <Synonyms>  (153) 
AS-703569 | R-763

>  <Withdrawn>  (153) 
nan

>  <Indications>  (153) 
nan

>  <Type>  (153) 
nan

>  <targets_id>  (153) 
O14965|Q96GD4|Q9UQB9

>  <Inchi>  (153) 
InChI=1S/C24H30FN7O/c1-14-11-17(5-6-19(14)32-9-7-31(2)8-10-32)28-24-27-13-18(25)23(30-24)29-21-16-4-3-15(12-16)20(21)22(26)33/h3-6,11,13,15-16,20-21H,7-10,12H2,1-2H3,(H2,26,33)(H2,27,28,29,30)

>  <stdInchikey>  (153) 
KSOVGRCOLZZTPF-QMKUDKLTSA-N

>  <csid>  (153) 
9744737

>  <Links>  (153) 
|http://www.chemspider.com/Chemical-Structure.9744737.html|https://www.ebi.ac.uk/chembldb/compound/inspect/CHEMBL1614709|https://pubchem.ncbi.nlm.nih.gov/compound/11569967|https://go.drugbank.com/drugs/DB06347|https://www.guidetopharmacology.org/GRAC/LigandDisplayForward?9927|https://precision.fda.gov/uniisearch/srs/unii/5277GPA358|https://www.bindingdb.org/bind/chemsearch/marvin/MolStructure.jsp?monomerid=50389967

>  <LinkName>  (153) 
|ChemSpider|ChEMBL|PubChem|DrugBank|Guide to Pharmacology|FDA SRS|BindingDB

>  <lig_pdb_ID>  (153) 


>  <pdb_IDs>  (153) 


>  <indicationDB>  (153) 


>  <uniprotId>  (153) 


>  <indicationG2P>  (153) 
None

>  <MW>  (153) 
451.2

>  <HBA>  (153) 
7

>  <HBD>  (153) 
3

>  <NRB>  (153) 
6

>  <TPSA>  (153) 
99.4

>  <LogP>  (153) 
2.5

>  <RoF>  (153) 
0

>  <Melting point>  (153) 
nan

>  <Targets>  (153) 
AURKA; AURKB; AURKC

>  <Kinase families>  (153) 
Other

>  <FDA_approved>  (153) 


$$$$
Civorebrutinib
     RDKit          2D

 33 37  0  0  0  0  0  0  0  0999 V2000
   -7.2608    4.1249    0.0000 N   0  0  0  0  0  0  0  0  0  0  0  0
   -6.7556    2.7125    0.0000 C   0  0  0  0  0  0  0  0  0  0  0  0
   -6.2505    1.3001    0.0000 N   0  0  0  0  0  0  0  0  0  0  0  0
   -4.7747    1.0314    0.0000 C   0  0  0  0  0  0  0  0  0  0  0  0
   -4.2696   -0.3810    0.0000 C   0  0  0  0  0  0  0  0  0  0  0  0
   -2.7939   -0.6497    0.0000 N   0  0  0  0  0  0  0  0  0  0  0  0
   -1.7090    0.3862    0.0000 N   0  0  0  0  0  0  0  0  0  0  0  0
   -0.3886   -0.3254    0.0000 C   0  0  0  0  0  0  0  0  0  0  0  0
    0.9633    0.3246    0.0000 C   0  0  0  0  0  0  0  0  0  0  0  0
    2.2021   -0.5211    0.0000 C   0  0  0  0  0  0  0  0  0  0  0  0
    3.5540    0.1289    0.0000 C   0  0  0  0  0  0  0  0  0  0  0  0
    3.6670    1.6247    0.0000 C   0  0  0  0  0  0  0  0  0  0  0  0
    5.0188    2.2747    0.0000 O   0  0  0  0  0  0  0  0  0  0  0  0
    6.2577    1.4290    0.0000 C   0  0  0  0  0  0  0  0  0  0  0  0
    6.1447   -0.0668    0.0000 C   0  0  0  0  0  0  0  0  0  0  0  0
    7.3835   -0.9125    0.0000 C   0  0  0  0  0  0  0  0  0  0  0  0
    8.7354   -0.2625    0.0000 C   0  0  0  0  0  0  0  0  0  0  0  0
    9.9742   -1.1082    0.0000 Cl  0  0  0  0  0  0  0  0  0  0  0  0
    8.8483    1.2332    0.0000 C   0  0  0  0  0  0  0  0  0  0  0  0
    7.6095    2.0790    0.0000 N   0  0  0  0  0  0  0  0  0  0  0  0
    2.4281    2.4704    0.0000 C   0  0  0  0  0  0  0  0  0  0  0  0
    1.0763    1.8204    0.0000 C   0  0  0  0  0  0  0  0  0  0  0  0
   -0.6573   -1.8011    0.0000 C   0  0  0  0  0  0  0  0  0  0  0  0
    0.3786   -2.8859    0.0000 C   0  0  0  0  0  0  0  0  0  0  0  0
   -0.0429   -4.3255    0.0000 N   0  0  0  0  0  0  0  0  0  0  0  0
    1.8361   -2.5312    0.0000 O   0  0  0  0  0  0  0  0  0  0  0  0
   -2.1438   -2.0016    0.0000 C   0  0  0  0  0  0  0  0  0  0  0  0
   -2.8554   -3.3220    0.0000 N   0  0  0  0  0  0  0  0  0  0  0  0
   -5.2402   -1.5246    0.0000 C   0  0  0  0  0  0  0  0  0  0  0  0
   -6.7159   -1.2559    0.0000 C   0  0  0  0  0  0  0  0  0  0  0  0
   -7.2211    0.1565    0.0000 C   0  0  0  0  0  0  0  0  0  0  0  0
   -8.6334   -0.3487    0.0000 C   0  0  0  0  0  0  0  0  0  0  0  0
   -8.3647    1.1271    0.0000 C   0  0  0  0  0  0  0  0  0  0  0  0
  1  2  3  0
  2  3  1  0
  3  4  1  0
  4  5  1  0
  5  6  1  6
  6  7  1  0
  7  8  2  0
  8  9  1  0
  9 10  2  0
 10 11  1  0
 11 12  2  0
 12 13  1  0
 13 14  1  0
 14 15  2  0
 15 16  1  0
 16 17  2  0
 17 18  1  0
 17 19  1  0
 19 20  2  0
 12 21  1  0
 21 22  2  0
  8 23  1  0
 23 24  1  0
 24 25  1  0
 24 26  2  0
 23 27  2  0
 27 28  1  0
  5 29  1  0
 29 30  1  0
 30 31  1  0
 31 32  1  0
 32 33  1  0
 31  3  1  0
 27  6  1  0
 33 31  1  0
 22  9  1  0
 20 14  1  0
M  END
>  <BrandName>  (154) 


>  <Applicants>  (154) 
('',)

>  <CHEMBL_ID>  (154) 
CHEMBL5314512

>  <Canonical_Smiles>  (154) 
N#CN1C[C@H](n2nc(-c3ccc(Oc4ccc(Cl)cn4)cc3)c(C(N)=O)c2N)CCC12CC2

>  <Chirality>  (154) 
Unknown

>  <First_Approval>  (154) 
nan

>  <Phase>  (154) 
2.0

>  <SC_Patent>  (154) 
nan

>  <Synonyms>  (154) 
CIVOREBRUTINIB

>  <Withdrawn>  (154) 
nan

>  <Indications>  (154) 
nan

>  <Type>  (154) 
nan

>  <targets_id>  (154) 
nan

>  <Inchi>  (154) 
InChI=1S/C23H22ClN7O2/c24-15-3-6-18(28-11-15)33-17-4-1-14(2-5-17)20-19(22(27)32)21(26)31(29-20)16-7-8-23(9-10-23)30(12-16)13-25/h1-6,11,16H,7-10,12,26H2,(H2,27,32)/t16-/m1/s1

>  <stdInchikey>  (154) 
OSEITUBGGJDFBK-MRXNPFEDSA-N

>  <csid>  (154) 
nan

>  <Links>  (154) 
|http://www.chemspider.com/Chemical-Structure.nan.html|https://www.ebi.ac.uk/chembldb/compound/inspect/CHEMBL5314512|https://pubchem.ncbi.nlm.nih.gov/compound/132162130

>  <LinkName>  (154) 
|ChemSpider|ChEMBL|PubChem

>  <lig_pdb_ID>  (154) 


>  <pdb_IDs>  (154) 


>  <indicationDB>  (154) 


>  <uniprotId>  (154) 


>  <indicationG2P>  (154) 


>  <MW>  (154) 
463.2

>  <HBA>  (154) 
8

>  <HBD>  (154) 
2

>  <NRB>  (154) 
5

>  <TPSA>  (154) 
136.1

>  <LogP>  (154) 
3.7

>  <RoF>  (154) 
0

>  <Melting point>  (154) 
nan

>  <Targets>  (154) 
nan

>  <Kinase families>  (154) 


>  <FDA_approved>  (154) 


$$$$
Ravoxertinib
     RDKit          2D

 31 34  0  0  0  0  0  0  0  0999 V2000
   -8.6136    1.0548    0.0000 C   0  0  0  0  0  0  0  0  0  0  0  0
   -7.1789    1.4927    0.0000 N   0  0  0  0  0  0  0  0  0  0  0  0
   -5.9814    0.5895    0.0000 C   0  0  0  0  0  0  0  0  0  0  0  0
   -4.7523    1.4493    0.0000 C   0  0  0  0  0  0  0  0  0  0  0  0
   -5.1902    2.8839    0.0000 C   0  0  0  0  0  0  0  0  0  0  0  0
   -6.6900    2.9108    0.0000 N   0  0  0  0  0  0  0  0  0  0  0  0
   -6.0082   -0.9103    0.0000 N   0  0  0  0  0  0  0  0  0  0  0  0
   -4.7228   -1.6834    0.0000 C   0  0  0  0  0  0  0  0  0  0  0  0
   -4.7497   -3.1832    0.0000 N   0  0  0  0  0  0  0  0  0  0  0  0
   -3.4643   -3.9563    0.0000 C   0  0  0  0  0  0  0  0  0  0  0  0
   -2.1520   -3.2297    0.0000 C   0  0  0  0  0  0  0  0  0  0  0  0
   -2.1252   -1.7299    0.0000 C   0  0  0  0  0  0  0  0  0  0  0  0
   -3.4106   -0.9568    0.0000 N   0  0  0  0  0  0  0  0  0  0  0  0
   -0.8129   -1.0033    0.0000 C   0  0  0  0  0  0  0  0  0  0  0  0
    0.4725   -1.7764    0.0000 C   0  0  0  0  0  0  0  0  0  0  0  0
    1.7847   -1.0498    0.0000 C   0  0  0  0  0  0  0  0  0  0  0  0
    1.8116    0.4500    0.0000 N   0  0  0  0  0  0  0  0  0  0  0  0
    0.5262    1.2231    0.0000 C   0  0  0  0  0  0  0  0  0  0  0  0
    0.5530    2.7229    0.0000 O   0  0  0  0  0  0  0  0  0  0  0  0
   -0.7861    0.4965    0.0000 C   0  0  0  0  0  0  0  0  0  0  0  0
    3.1238    1.1766    0.0000 C   0  0  0  0  0  0  0  0  0  0  0  0
    3.1507    2.6764    0.0000 C   0  0  0  0  0  0  0  0  0  0  0  0
    4.4629    3.4030    0.0000 O   0  0  0  0  0  0  0  0  0  0  0  0
    4.4093    0.4035    0.0000 C   0  0  0  0  0  0  0  0  0  0  0  0
    4.3824   -1.0963    0.0000 C   0  0  0  0  0  0  0  0  0  0  0  0
    5.6678   -1.8694    0.0000 C   0  0  0  0  0  0  0  0  0  0  0  0
    6.9801   -1.1428    0.0000 C   0  0  0  0  0  0  0  0  0  0  0  0
    7.0069    0.3570    0.0000 C   0  0  0  0  0  0  0  0  0  0  0  0
    5.7215    1.1301    0.0000 C   0  0  0  0  0  0  0  0  0  0  0  0
    8.3192    1.0836    0.0000 F   0  0  0  0  0  0  0  0  0  0  0  0
    8.2655   -1.9159    0.0000 Cl  0  0  0  0  0  0  0  0  0  0  0  0
  1  2  1  0
  2  3  1  0
  3  4  2  0
  4  5  1  0
  5  6  2  0
  3  7  1  0
  7  8  1  0
  8  9  2  0
  9 10  1  0
 10 11  2  0
 11 12  1  0
 12 13  2  0
 12 14  1  0
 14 15  1  0
 15 16  2  0
 16 17  1  0
 17 18  1  0
 18 19  2  0
 18 20  1  0
 17 21  1  0
 21 22  1  6
 22 23  1  0
 21 24  1  0
 24 25  2  0
 25 26  1  0
 26 27  2  0
 27 28  1  0
 28 29  2  0
 28 30  1  0
 27 31  1  0
  6  2  1  0
 13  8  1  0
 20 14  2  0
 29 24  1  0
M  END
>  <BrandName>  (155) 


>  <Applicants>  (155) 
Genentech

>  <CHEMBL_ID>  (155) 
CHEMBL3544964

>  <Canonical_Smiles>  (155) 
Cn1c(ccn1)Nc2nccc(n2)c3ccn(c(=O)c3)[C@H](CO)c4ccc(c(c4)F)Cl

>  <Chirality>  (155) 
Single Stereoisomer

>  <First_Approval>  (155) 
nan

>  <Phase>  (155) 
2.0

>  <SC_Patent>  (155) 
nan

>  <Synonyms>  (155) 
GDC-0994 | GDC0994 | RAVOXERTINIB | RG-7842

>  <Withdrawn>  (155) 
nan

>  <Indications>  (155) 
nan

>  <Type>  (155) 
nan

>  <targets_id>  (155) 
nan

>  <Inchi>  (155) 
InChI=1S/C21H18ClFN6O2/c1-28-19(5-8-25-28)27-21-24-7-4-17(26-21)13-6-9-29(20(31)11-13)18(12-30)14-2-3-15(22)16(23)10-14/h2-11,18,30H,12H2,1H3,(H,24,26,27)/t18-/m1/s1

>  <stdInchikey>  (155) 
RZUOCXOYPYGSKL-GOSISDBHSA-N

>  <csid>  (155) 
32501977

>  <Links>  (155) 
|http://www.chemspider.com/Chemical-Structure.32501977.html|https://www.ebi.ac.uk/chembldb/compound/inspect/CHEMBL3544964|https://pubchem.ncbi.nlm.nih.gov/compound/71727581|https://go.drugbank.com/drugs/DB15281|https://www.rcsb.org/ligand/6QB|https://www.ebi.ac.uk/pdbe-srv/pdbechem/chemicalCompound/show/6QB|https://www.guidetopharmacology.org/GRAC/LigandDisplayForward?9229|https://zinc15.docking.org/substances/ZINC000144904566|https://precision.fda.gov/uniisearch/srs/unii/R6AXV96CRH|https://www.bindingdb.org/bind/chemsearch/marvin/MolStructure.jsp?monomerid=120095

>  <LinkName>  (155) 
|ChemSpider|ChEMBL|PubChem|DrugBank|RCSB|PDBe|Guide to Pharmacology|ZINC|FDA SRS|BindingDB

>  <lig_pdb_ID>  (155) 
6QB

>  <pdb_IDs>  (155) 
5k4i 5k4j 6oph

>  <indicationDB>  (155) 


>  <uniprotId>  (155) 


>  <indicationG2P>  (155) 
None

>  <MW>  (155) 
440.1

>  <HBA>  (155) 
8

>  <HBD>  (155) 
2

>  <NRB>  (155) 
6

>  <TPSA>  (155) 
97.9

>  <LogP>  (155) 
3.2

>  <RoF>  (155) 
0

>  <Melting point>  (155) 
nan

>  <Targets>  (155) 
nan

>  <Kinase families>  (155) 


>  <FDA_approved>  (155) 


$$$$
Lartesertib
     RDKit          2D

 33 37  0  0  0  0  0  0  0  0999 V2000
    4.9272   -3.4564    0.0000 C   0  0  0  0  0  0  0  0  0  0  0  0
    4.3271   -2.0817    0.0000 O   0  0  0  0  0  0  0  0  0  0  0  0
    2.8365   -1.9140    0.0000 C   0  0  0  0  0  0  0  0  0  0  0  0
    1.9460   -3.1211    0.0000 C   0  0  0  0  0  0  0  0  0  0  0  0
    0.4554   -2.9535    0.0000 C   0  0  0  0  0  0  0  0  0  0  0  0
   -0.4351   -4.1605    0.0000 N   0  0  0  0  0  0  0  0  0  0  0  0
   -1.9257   -3.9929    0.0000 C   0  0  0  0  0  0  0  0  0  0  0  0
   -2.5258   -2.6182    0.0000 C   0  0  0  0  0  0  0  0  0  0  0  0
   -1.6353   -1.4111    0.0000 C   0  0  0  0  0  0  0  0  0  0  0  0
   -0.1447   -1.5787    0.0000 C   0  0  0  0  0  0  0  0  0  0  0  0
    0.7458   -0.3717    0.0000 C   0  0  0  0  0  0  0  0  0  0  0  0
    2.2364   -0.5393    0.0000 C   0  0  0  0  0  0  0  0  0  0  0  0
    3.1269    0.6677    0.0000 C   0  0  0  0  0  0  0  0  0  0  0  0
    2.6738    2.0977    0.0000 C   0  0  0  0  0  0  0  0  0  0  0  0
    3.8937    2.9705    0.0000 N   0  0  0  0  0  0  0  0  0  0  0  0
    3.9046    4.4704    0.0000 C   0  0  0  0  0  0  0  0  0  0  0  0
    5.1008    2.0800    0.0000 N   0  0  0  0  0  0  0  0  0  0  0  0
    4.6268    0.6568    0.0000 C   0  0  0  0  0  0  0  0  0  0  0  0
    5.4997   -0.5631    0.0000 C   0  0  0  0  0  0  0  0  0  0  0  0
   -2.5081   -0.1912    0.0000 N   0  0  0  0  0  0  0  0  0  0  0  0
   -2.0342    1.2320    0.0000 C   0  0  0  0  0  0  0  0  0  0  0  0
   -0.5648    1.5332    0.0000 C   0  0  0  0  0  0  0  0  0  0  0  0
    0.4308    0.4112    0.0000 F   0  0  0  0  0  0  0  0  0  0  0  0
   -0.0909    2.9563    0.0000 C   0  0  0  0  0  0  0  0  0  0  0  0
   -1.0864    4.0783    0.0000 N   0  0  0  0  0  0  0  0  0  0  0  0
   -2.5559    3.7772    0.0000 C   0  0  0  0  0  0  0  0  0  0  0  0
   -3.0298    2.3540    0.0000 C   0  0  0  0  0  0  0  0  0  0  0  0
   -4.4992    2.0528    0.0000 O   0  0  0  0  0  0  0  0  0  0  0  0
   -5.4948    3.1748    0.0000 C   0  0  0  0  0  0  0  0  0  0  0  0
   -3.9380   -0.6443    0.0000 C   0  0  0  0  0  0  0  0  0  0  0  0
   -5.1451    0.2462    0.0000 O   0  0  0  0  0  0  0  0  0  0  0  0
   -3.9490   -2.1443    0.0000 N   0  0  0  0  0  0  0  0  0  0  0  0
   -5.1689   -3.0171    0.0000 C   0  0  0  0  0  0  0  0  0  0  0  0
  1  2  1  0
  2  3  1  0
  3  4  2  0
  4  5  1  0
  5  6  2  0
  6  7  1  0
  7  8  2  0
  8  9  1  0
  9 10  2  0
 10 11  1  0
 11 12  2  0
 12 13  1  0
 13 14  2  0
 14 15  1  0
 15 16  1  0
 15 17  1  0
 17 18  2  0
 18 19  1  0
  9 20  1  0
 20 21  1  0
 21 22  2  0
 22 23  1  0
 22 24  1  0
 24 25  2  0
 25 26  1  0
 26 27  2  0
 27 28  1  0
 28 29  1  0
 20 30  1  0
 30 31  2  0
 30 32  1  0
 32 33  1  0
 12  3  1  0
 18 13  1  0
 27 21  1  0
 10  5  1  0
 32  8  1  0
M  END
>  <BrandName>  (156) 


>  <Applicants>  (156) 
('Merck KGaA',)

>  <CHEMBL_ID>  (156) 
CHEMBL5314413

>  <Canonical_Smiles>  (156) 
COc1cc2ncc3c(c2cc1-c1cn(C)nc1C)n(-c1c(F)cncc1OC)c(=O)n3C

>  <Chirality>  (156) 
Single Stereoisomer

>  <First_Approval>  (156) 
nan

>  <Phase>  (156) 
2.0

>  <SC_Patent>  (156) 
nan

>  <Synonyms>  (156) 
LARTESERTIB | M 4076 | M-4076 | M4076

>  <Withdrawn>  (156) 
nan

>  <Indications>  (156) 
nan

>  <Type>  (156) 
nan

>  <targets_id>  (156) 
nan

>  <Inchi>  (156) 
InChI=1S/C23H21FN6O3/c1-12-15(11-28(2)27-12)13-6-14-17(7-19(13)32-4)26-9-18-21(14)30(23(31)29(18)3)22-16(24)8-25-10-20(22)33-5/h6-11H,1-5H3

>  <stdInchikey>  (156) 
WNEFOSMCGCLLJU-UHFFFAOYSA-N

>  <csid>  (156) 
115277014

>  <Links>  (156) 
|http://www.chemspider.com/Chemical-Structure.115277014.html|https://www.ebi.ac.uk/chembldb/compound/inspect/CHEMBL5314413|https://pubchem.ncbi.nlm.nih.gov/compound/122599280|https://www.rcsb.org/ligand/UGK|https://www.ebi.ac.uk/pdbe-srv/pdbechem/chemicalCompound/show/UGK|https://precision.fda.gov/uniisearch/srs/unii/KL7B6D38VC|https://www.bindingdb.org/bind/chemsearch/marvin/MolStructure.jsp?monomerid=418436

>  <LinkName>  (156) 
|ChemSpider|ChEMBL|PubChem|RCSB|PDBe|FDA SRS|BindingDB

>  <lig_pdb_ID>  (156) 
UGK

>  <pdb_IDs>  (156) 
7ni4

>  <indicationDB>  (156) 


>  <uniprotId>  (156) 


>  <indicationG2P>  (156) 


>  <MW>  (156) 
448.2

>  <HBA>  (156) 
9

>  <HBD>  (156) 
0

>  <NRB>  (156) 
4

>  <TPSA>  (156) 
89.0

>  <LogP>  (156) 
3.1

>  <RoF>  (156) 
0

>  <Melting point>  (156) 
nan

>  <Targets>  (156) 
nan

>  <Kinase families>  (156) 


>  <FDA_approved>  (156) 


$$$$
Tilpisertib
     RDKit          2D

 43 49  0  0  0  0  0  0  0  0999 V2000
    4.0703   -3.9074    0.0000 C   0  0  0  0  0  0  0  0  0  0  0  0
    5.4794   -3.3933    0.0000 C   0  0  0  0  0  0  0  0  0  0  0  0
    6.8886   -2.8792    0.0000 C   0  0  0  0  0  0  0  0  0  0  0  0
    5.9935   -4.8024    0.0000 C   0  0  0  0  0  0  0  0  0  0  0  0
    4.9653   -1.9841    0.0000 C   0  0  0  0  0  0  0  0  0  0  0  0
    5.9286   -0.8343    0.0000 N   0  0  0  0  0  0  0  0  0  0  0  0
    5.4145    0.5748    0.0000 C   0  0  0  0  0  0  0  0  0  0  0  0
    3.9370    0.8341    0.0000 C   0  0  0  0  0  0  0  0  0  0  0  0
    2.9738   -0.3157    0.0000 C   0  0  0  0  0  0  0  0  0  0  0  0
    1.4963   -0.0564    0.0000 C   0  0  0  0  0  0  0  0  0  0  0  0
    0.9822    1.3528    0.0000 C   0  0  0  0  0  0  0  0  0  0  0  0
    1.9455    2.5026    0.0000 C   0  0  0  0  0  0  0  0  0  0  0  0
    1.4314    3.9117    0.0000 Cl  0  0  0  0  0  0  0  0  0  0  0  0
    3.4229    2.2433    0.0000 C   0  0  0  0  0  0  0  0  0  0  0  0
    4.3862    3.3931    0.0000 N   0  0  0  0  0  0  0  0  0  0  0  0
    5.8636    3.1338    0.0000 C   0  0  0  0  0  0  0  0  0  0  0  0
    6.3777    1.7246    0.0000 C   0  0  0  0  0  0  0  0  0  0  0  0
    7.8552    1.4653    0.0000 C   0  0  0  0  0  0  0  0  0  0  0  0
    9.3326    1.2060    0.0000 N   0  0  0  0  0  0  0  0  0  0  0  0
    0.5330   -1.2062    0.0000 N   0  0  0  0  0  0  0  0  0  0  0  0
   -0.9444   -0.9468    0.0000 C   0  0  0  0  0  0  0  0  0  0  0  0
   -1.9077   -2.0967    0.0000 C   0  0  0  0  0  0  0  0  0  0  0  0
   -1.3935   -3.5058    0.0000 C   0  0  0  0  0  0  0  0  0  0  0  0
   -2.3568   -4.6556    0.0000 C   0  0  0  0  0  0  0  0  0  0  0  0
   -3.8342   -4.3963    0.0000 C   0  0  0  0  0  0  0  0  0  0  0  0
   -4.3484   -2.9872    0.0000 C   0  0  0  0  0  0  0  0  0  0  0  0
   -5.8258   -2.7278    0.0000 C   0  0  0  0  0  0  0  0  0  0  0  0
   -6.7891   -3.8776    0.0000 O   0  0  0  0  0  0  0  0  0  0  0  0
   -6.3399   -1.3187    0.0000 N   0  0  0  0  0  0  0  0  0  0  0  0
   -7.8173   -1.0594    0.0000 C   0  0  0  0  0  0  0  0  0  0  0  0
   -5.3766   -0.1689    0.0000 C   0  0  0  0  0  0  0  0  0  0  0  0
   -3.8992   -0.4282    0.0000 C   0  0  0  0  0  0  0  0  0  0  0  0
   -3.3851   -1.8373    0.0000 C   0  0  0  0  0  0  0  0  0  0  0  0
   -1.4585    0.4623    0.0000 C   0  0  0  0  0  0  0  0  0  0  0  0
   -2.9007    0.8746    0.0000 C   0  0  0  0  0  0  0  0  0  0  0  0
   -2.9542    2.3737    0.0000 N   0  0  0  0  0  0  0  0  0  0  0  0
   -1.5451    2.8878    0.0000 N   0  0  0  0  0  0  0  0  0  0  0  0
   -0.6207    1.7065    0.0000 N   0  0  0  0  0  0  0  0  0  0  0  0
   -4.1984    3.2115    0.0000 C   0  0  0  0  0  0  0  0  0  0  0  0
   -5.6706    2.9241    0.0000 C   0  0  0  0  0  0  0  0  0  0  0  0
   -5.9580    4.3964    0.0000 C   0  0  0  0  0  0  0  0  0  0  0  0
   -4.4858    4.6837    0.0000 C   0  0  0  0  0  0  0  0  0  0  0  0
   -5.2677    3.5225    0.0000 C   0  0  0  0  0  0  0  0  0  0  0  0
  1  2  1  0
  2  3  1  0
  2  4  1  0
  2  5  1  0
  5  6  1  0
  6  7  1  0
  7  8  2  0
  8  9  1  0
  9 10  2  0
 10 11  1  0
 11 12  2  0
 12 13  1  0
 12 14  1  0
 14 15  2  0
 15 16  1  0
 16 17  2  0
 17 18  1  0
 18 19  3  0
 10 20  1  0
 21 20  1  1
 21 22  1  0
 22 23  2  0
 23 24  1  0
 24 25  2  0
 25 26  1  0
 26 27  1  0
 27 28  2  0
 27 29  1  0
 29 30  1  0
 29 31  1  0
 31 32  2  0
 32 33  1  0
 21 34  1  0
 34 35  2  0
 35 36  1  0
 36 37  1  0
 37 38  2  0
 36 39  1  0
 39 40  1  0
 40 41  1  0
 41 42  1  0
 41 43  1  0
 17  7  1  0
 33 22  1  0
 38 34  1  0
 42 39  1  0
 14  8  1  0
 33 26  2  0
 43 39  1  0
M  END
>  <BrandName>  (157) 


>  <Applicants>  (157) 
Gilead Sciences

>  <CHEMBL_ID>  (157) 
CHEMBL5314443

>  <Canonical_Smiles>  (157) 
CC(C)(C)CNC1=C2C=C(C=C(Cl)C2=NC=C1C#N)N[C@@H](C1C=CC=C2C(=O)N(C)C=CC=12)C1=CN(N=N1)C12CC(C1)C2

>  <Chirality>  (157) 
Unknown

>  <First_Approval>  (157) 
nan

>  <Phase>  (157) 
2.0

>  <SC_Patent>  (157) 
nan

>  <Synonyms>  (157) 
TILPISERTIB

>  <Withdrawn>  (157) 
nan

>  <Indications>  (157) 
nan

>  <Type>  (157) 
nan

>  <targets_id>  (157) 
nan

>  <Inchi>  (157) 
InChI=1S/C35H36ClN8O7P/c1-34(2,3)18-38-31-22(16-37)10-21-11-23(12-27(36)29(21)39-31)44(33(46)50-19-51-52(47,48)49)30(28-17-43(41-40-28)35-13-20(14-35)15-35)25-6-5-7-26-24(25)8-9-42(4)32(26)45/h5-12,17,20,30H,13-15,18-19H2,1-4H3,(H,38,39)(H2,47,48,49)/t20?,30-,35?/m0/s1

>  <stdInchikey>  (157) 
VFGSKBLZRDRHOI-ZAGPDIDGSA-N

>  <csid>  (157) 
115009513

>  <Links>  (157) 
|http://www.chemspider.com/Chemical-Structure.115009513.html|https://www.ebi.ac.uk/chembldb/compound/inspect/CHEMBL4802154|https://pubchem.ncbi.nlm.nih.gov/compound/124181541|https://precision.fda.gov/uniisearch/srs/unii/A8Y5K4G762

>  <LinkName>  (157) 
|ChemSpider|ChEMBL|PubChem|FDA SRS

>  <lig_pdb_ID>  (157) 


>  <pdb_IDs>  (157) 


>  <indicationDB>  (157) 


>  <uniprotId>  (157) 


>  <indicationG2P>  (157) 


>  <MW>  (157) 
592.2

>  <HBA>  (157) 
9

>  <HBD>  (157) 
2

>  <NRB>  (157) 
7

>  <TPSA>  (157) 
113.5

>  <LogP>  (157) 
6.4

>  <RoF>  (157) 
2

>  <Melting point>  (157) 
nan

>  <Targets>  (157) 
nan

>  <Kinase families>  (157) 


>  <FDA_approved>  (157) 


$$$$
Mirdametinib
     RDKit          2D

 26 27  0  0  0  0  0  0  0  0999 V2000
   -1.2300   -1.1341    0.0000 O   0  0  0  0  0  0  0  0  0  0  0  0
   -1.5592    0.3293    0.0000 C   0  0  0  0  0  0  0  0  0  0  0  0
   -2.9912    0.7760    0.0000 N   0  0  0  0  0  0  0  0  0  0  0  0
   -4.0939   -0.2408    0.0000 O   0  0  0  0  0  0  0  0  0  0  0  0
   -5.5259    0.2058    0.0000 C   0  0  0  0  0  0  0  0  0  0  0  0
   -6.6287   -0.8110    0.0000 C   0  0  0  0  0  0  0  0  0  0  0  0
   -6.2995   -2.2744    0.0000 O   0  0  0  0  0  0  0  0  0  0  0  0
   -8.0607   -0.3644    0.0000 C   0  0  0  0  0  0  0  0  0  0  0  0
   -9.1634   -1.3812    0.0000 O   0  0  0  0  0  0  0  0  0  0  0  0
   -0.4564    1.3461    0.0000 C   0  0  0  0  0  0  0  0  0  0  0  0
   -0.7856    2.8095    0.0000 C   0  0  0  0  0  0  0  0  0  0  0  0
    0.3172    3.8263    0.0000 C   0  0  0  0  0  0  0  0  0  0  0  0
    1.7491    3.3797    0.0000 C   0  0  0  0  0  0  0  0  0  0  0  0
    2.8519    4.3965    0.0000 F   0  0  0  0  0  0  0  0  0  0  0  0
    2.0783    1.9163    0.0000 C   0  0  0  0  0  0  0  0  0  0  0  0
    3.5103    1.4696    0.0000 F   0  0  0  0  0  0  0  0  0  0  0  0
    0.9755    0.8995    0.0000 C   0  0  0  0  0  0  0  0  0  0  0  0
    1.3047   -0.5640    0.0000 N   0  0  0  0  0  0  0  0  0  0  0  0
    2.7367   -1.0106    0.0000 C   0  0  0  0  0  0  0  0  0  0  0  0
    3.8395    0.0062    0.0000 C   0  0  0  0  0  0  0  0  0  0  0  0
    5.2714   -0.4404    0.0000 C   0  0  0  0  0  0  0  0  0  0  0  0
    5.6006   -1.9039    0.0000 C   0  0  0  0  0  0  0  0  0  0  0  0
    7.0326   -2.3505    0.0000 I   0  0  0  0  0  0  0  0  0  0  0  0
    4.4978   -2.9207    0.0000 C   0  0  0  0  0  0  0  0  0  0  0  0
    3.0659   -2.4740    0.0000 C   0  0  0  0  0  0  0  0  0  0  0  0
    1.9631   -3.4908    0.0000 F   0  0  0  0  0  0  0  0  0  0  0  0
  1  2  2  0
  2  3  1  0
  3  4  1  0
  4  5  1  0
  5  6  1  0
  6  7  1  6
  6  8  1  0
  8  9  1  0
  2 10  1  0
 10 11  2  0
 11 12  1  0
 12 13  2  0
 13 14  1  0
 13 15  1  0
 15 16  1  0
 15 17  2  0
 17 18  1  0
 18 19  1  0
 19 20  2  0
 20 21  1  0
 21 22  2  0
 22 23  1  0
 22 24  1  0
 24 25  2  0
 25 26  1  0
 17 10  1  0
 25 19  1  0
M  END
>  <BrandName>  (158) 


>  <Applicants>  (158) 
Pfizer

>  <CHEMBL_ID>  (158) 
CHEMBL507361

>  <Canonical_Smiles>  (158) 
O=C(NOC[C@H](O)CO)c1ccc(F)c(F)c1Nc1ccc(I)cc1F

>  <Chirality>  (158) 
Single Stereoisomer

>  <First_Approval>  (158) 
2025

>  <Phase>  (158) 
4.0

>  <SC_Patent>  (158) 
nan

>  <Synonyms>  (158) 
MIRDAMETINIB | PD 0325901 | PD 03525901 | PD 901 | PD-0325901

>  <Withdrawn>  (158) 
{''}

>  <Indications>  (158) 
On February 2025, FDA approved mirdatinib to treat neurofibromatosis type 1 who have symptomatic plexiform neurofibromas not amenable to complete resection

>  <Type>  (158) 
nan

>  <targets_id>  (158) 
Q02750|P36507

>  <Inchi>  (158) 
InChI=1S/C16H14F3IN2O4/c17-11-3-2-10(16(25)22-26-7-9(24)6-23)15(14(11)19)21-13-4-1-8(20)5-12(13)18/h1-5,9,21,23-24H,6-7H2,(H,22,25)/t9-/m1/s1

>  <stdInchikey>  (158) 
SUDAHWBOROXANE-SECBINFHSA-N

>  <csid>  (158) 
8002271

>  <Links>  (158) 
|http://www.chemspider.com/Chemical-Structure.8002271.html|https://www.ebi.ac.uk/chembldb/compound/inspect/CHEMBL507361|https://pubchem.ncbi.nlm.nih.gov/compound/9826528|https://go.drugbank.com/drugs/DB07101|https://www.rcsb.org/ligand/4BM|https://www.ebi.ac.uk/pdbe-srv/pdbechem/chemicalCompound/show/4BM|https://www.guidetopharmacology.org/GRAC/LigandDisplayForward?7935|https://zinc15.docking.org/substances/ZINC000003938683|https://precision.fda.gov/uniisearch/srs/unii/86K0J5AK6M|https://www.bindingdb.org/bind/chemsearch/marvin/MolStructure.jsp?monomerid=104963

>  <LinkName>  (158) 
|ChemSpider|ChEMBL|PubChem|DrugBank|RCSB|PDBe|Guide to Pharmacology|ZINC|FDA SRS|BindingDB

>  <lig_pdb_ID>  (158) 
4BM

>  <pdb_IDs>  (158) 
3eqg 3vvh 7juu 7jv0 7m0x

>  <indicationDB>  (158) 


>  <uniprotId>  (158) 


>  <indicationG2P>  (158) 
None

>  <MW>  (158) 
482.0

>  <HBA>  (158) 
5

>  <HBD>  (158) 
4

>  <NRB>  (158) 
7

>  <TPSA>  (158) 
90.8

>  <LogP>  (158) 
2.5

>  <RoF>  (158) 
0

>  <Melting point>  (158) 
nan

>  <Targets>  (158) 
nan

>  <Kinase families>  (158) 


>  <FDA_approved>  (158) 
Y

$$$$
Luvixasertib
     RDKit          2D

 37 42  0  0  0  0  0  0  0  0999 V2000
    4.7727   -4.1762    0.0000 C   0  0  0  0  0  0  0  0  0  0  0  0
    3.9696   -2.9092    0.0000 C   0  0  0  0  0  0  0  0  0  0  0  0
    2.4709   -2.9712    0.0000 C   0  0  0  0  0  0  0  0  0  0  0  0
    1.6679   -1.7042    0.0000 C   0  0  0  0  0  0  0  0  0  0  0  0
    0.1692   -1.7662    0.0000 C   0  0  0  0  0  0  0  0  0  0  0  0
   -0.6616   -3.0151    0.0000 C   0  0  0  0  0  0  0  0  0  0  0  0
   -2.1061   -2.6109    0.0000 N   0  0  0  0  0  0  0  0  0  0  0  0
   -2.1681   -1.1121    0.0000 N   0  0  0  0  0  0  0  0  0  0  0  0
   -3.3233   -0.1553    0.0000 C   0  0  0  0  0  0  0  0  0  0  0  0
   -4.7295   -0.6774    0.0000 N   0  0  0  0  0  0  0  0  0  0  0  0
   -5.8847    0.2794    0.0000 C   0  0  0  0  0  0  0  0  0  0  0  0
   -7.2909   -0.2426    0.0000 C   0  0  0  0  0  0  0  0  0  0  0  0
   -8.6544    0.3826    0.0000 C   0  0  0  0  0  0  0  0  0  0  0  0
   -9.2797   -0.9809    0.0000 C   0  0  0  0  0  0  0  0  0  0  0  0
   -9.9049   -2.3444    0.0000 C   0  0  0  0  0  0  0  0  0  0  0  0
  -10.6431   -0.3557    0.0000 O   0  0  0  0  0  0  0  0  0  0  0  0
   -7.9162   -1.6061    0.0000 C   0  0  0  0  0  0  0  0  0  0  0  0
   -3.0723    1.3235    0.0000 C   0  0  0  0  0  0  0  0  0  0  0  0
   -1.6660    1.8456    0.0000 C   0  0  0  0  0  0  0  0  0  0  0  0
   -1.4150    3.3244    0.0000 O   0  0  0  0  0  0  0  0  0  0  0  0
   -0.0088    3.8465    0.0000 C   0  0  0  0  0  0  0  0  0  0  0  0
    1.1464    2.8896    0.0000 C   0  0  0  0  0  0  0  0  0  0  0  0
    2.5526    3.4117    0.0000 C   0  0  0  0  0  0  0  0  0  0  0  0
    2.8036    4.8905    0.0000 C   0  0  0  0  0  0  0  0  0  0  0  0
    1.6484    5.8473    0.0000 N   0  0  0  0  0  0  0  0  0  0  0  0
    0.2422    5.3253    0.0000 C   0  0  0  0  0  0  0  0  0  0  0  0
   -0.5108    0.8888    0.0000 N   0  0  0  0  0  0  0  0  0  0  0  0
   -0.7618   -0.5901    0.0000 C   0  0  0  0  0  0  0  0  0  0  0  0
    2.3636   -0.3753    0.0000 C   0  0  0  0  0  0  0  0  0  0  0  0
    3.8624   -0.3134    0.0000 C   0  0  0  0  0  0  0  0  0  0  0  0
    4.6654   -1.5803    0.0000 C   0  0  0  0  0  0  0  0  0  0  0  0
    6.1641   -1.5184    0.0000 C   0  0  0  0  0  0  0  0  0  0  0  0
    6.9671   -2.7854    0.0000 O   0  0  0  0  0  0  0  0  0  0  0  0
    6.8598   -0.1895    0.0000 N   0  0  0  0  0  0  0  0  0  0  0  0
    8.3585   -0.1276    0.0000 C   0  0  0  0  0  0  0  0  0  0  0  0
    9.6255    0.6755    0.0000 C   0  0  0  0  0  0  0  0  0  0  0  0
    9.6874   -0.8233    0.0000 C   0  0  0  0  0  0  0  0  0  0  0  0
  1  2  1  0
  2  3  2  0
  3  4  1  0
  4  5  1  0
  5  6  1  0
  6  7  2  0
  7  8  1  0
  8  9  1  0
  9 10  1  0
 10 11  1  0
 12 11  1  6
 12 13  1  0
 13 14  1  0
 14 15  1  1
 14 16  1  0
 14 17  1  0
  9 18  2  0
 18 19  1  0
 19 20  1  0
 20 21  1  0
 21 22  2  0
 22 23  1  0
 23 24  2  0
 24 25  1  0
 25 26  2  0
 19 27  2  0
 27 28  1  0
  4 29  2  0
 29 30  1  0
 30 31  2  0
 31 32  1  0
 32 33  2  0
 32 34  1  0
 34 35  1  0
 35 36  1  0
 36 37  1  0
 31  2  1  0
 37 35  1  0
 28  5  2  0
 28  8  1  0
 17 12  1  0
 26 21  1  0
M  END
>  <BrandName>  (159) 


>  <Applicants>  (159) 
University Health Network

>  <CHEMBL_ID>  (159) 
CHEMBL4469414

>  <Canonical_Smiles>  (159) 
Cc1cc(-c2cnn3c(NC[C@H]4C[C@@](C)(O)C4)cc(Oc4cccnc4)nc23)ccc1C(=O)NC1CC1

>  <Chirality>  (159) 
Single Stereoisomer

>  <First_Approval>  (159) 
nan

>  <Phase>  (159) 
2.0

>  <SC_Patent>  (159) 
nan

>  <Synonyms>  (159) 
CFI-402257 | CFI402257 | LUVIXASERTIB

>  <Withdrawn>  (159) 
nan

>  <Indications>  (159) 
nan

>  <Type>  (159) 
nan

>  <targets_id>  (159) 
nan

>  <Inchi>  (159) 
InChI=1S/C28H30N6O3/c1-17-10-19(5-8-22(17)27(35)32-20-6-7-20)23-16-31-34-24(30-14-18-12-28(2,36)13-18)11-25(33-26(23)34)37-21-4-3-9-29-15-21/h3-5,8-11,15-16,18,20,30,36H,6-7,12-14H2,1-2H3,(H,32,35)/t18-,28+

>  <stdInchikey>  (159) 
PMQUGSPFUBGJCZ-CHOKWEPUSA-N

>  <csid>  (159) 
60600040

>  <Links>  (159) 
|http://www.chemspider.com/Chemical-Structure.60600040.html|https://www.ebi.ac.uk/chembldb/compound/inspect/CHEMBL4469414|https://precision.fda.gov/uniisearch/srs/unii/HE97PTK3Q6|https://www.bindingdb.org/bind/chemsearch/marvin/MolStructure.jsp?monomerid=50512456

>  <LinkName>  (159) 
|ChemSpider|ChEMBL|FDA SRS|BindingDB

>  <lig_pdb_ID>  (159) 


>  <pdb_IDs>  (159) 


>  <indicationDB>  (159) 


>  <uniprotId>  (159) 


>  <indicationG2P>  (159) 


>  <MW>  (159) 
498.2

>  <HBA>  (159) 
8

>  <HBD>  (159) 
3

>  <NRB>  (159) 
8

>  <TPSA>  (159) 
113.7

>  <LogP>  (159) 
4.4

>  <RoF>  (159) 
0

>  <Melting point>  (159) 
nan

>  <Targets>  (159) 
nan

>  <Kinase families>  (159) 


>  <FDA_approved>  (159) 


$$$$
Canlitinib
     RDKit          2D

 45 49  0  0  0  0  0  0  0  0999 V2000
    7.0400    3.6711    0.0000 C   0  0  0  0  0  0  0  0  0  0  0  0
    5.5470    3.5257    0.0000 O   0  0  0  0  0  0  0  0  0  0  0  0
    4.9265    2.1601    0.0000 C   0  0  0  0  0  0  0  0  0  0  0  0
    3.4335    2.0147    0.0000 C   0  0  0  0  0  0  0  0  0  0  0  0
    2.8130    0.6491    0.0000 C   0  0  0  0  0  0  0  0  0  0  0  0
    1.3200    0.5037    0.0000 C   0  0  0  0  0  0  0  0  0  0  0  0
    0.6995   -0.8619    0.0000 C   0  0  0  0  0  0  0  0  0  0  0  0
    1.5719   -2.0821    0.0000 C   0  0  0  0  0  0  0  0  0  0  0  0
    3.0648   -1.9367    0.0000 N   0  0  0  0  0  0  0  0  0  0  0  0
    3.6854   -0.5711    0.0000 C   0  0  0  0  0  0  0  0  0  0  0  0
    5.1783   -0.4257    0.0000 C   0  0  0  0  0  0  0  0  0  0  0  0
    5.7989    0.9399    0.0000 C   0  0  0  0  0  0  0  0  0  0  0  0
    7.2918    1.0853    0.0000 O   0  0  0  0  0  0  0  0  0  0  0  0
    8.1642   -0.1349    0.0000 C   0  0  0  0  0  0  0  0  0  0  0  0
    9.6571    0.0104    0.0000 C   0  0  0  0  0  0  0  0  0  0  0  0
   10.5295   -1.2098    0.0000 C   0  0  0  0  0  0  0  0  0  0  0  0
   12.0224   -1.0644    0.0000 C   0  0  0  0  0  0  0  0  0  0  0  0
   12.8948   -2.2846    0.0000 C   0  0  0  0  0  0  0  0  0  0  0  0
   14.3877   -2.1393    0.0000 C   0  0  0  0  0  0  0  0  0  0  0  0
   15.2601   -3.3595    0.0000 O   0  0  0  0  0  0  0  0  0  0  0  0
   15.0083   -0.7736    0.0000 O   0  0  0  0  0  0  0  0  0  0  0  0
    0.4477    1.7240    0.0000 O   0  0  0  0  0  0  0  0  0  0  0  0
   -1.0453    1.5786    0.0000 C   0  0  0  0  0  0  0  0  0  0  0  0
   -1.9176    2.7988    0.0000 C   0  0  0  0  0  0  0  0  0  0  0  0
   -3.4106    2.6534    0.0000 C   0  0  0  0  0  0  0  0  0  0  0  0
   -4.0311    1.2878    0.0000 C   0  0  0  0  0  0  0  0  0  0  0  0
   -3.1588    0.0676    0.0000 C   0  0  0  0  0  0  0  0  0  0  0  0
   -1.6658    0.2130    0.0000 C   0  0  0  0  0  0  0  0  0  0  0  0
   -0.7935   -1.0073    0.0000 F   0  0  0  0  0  0  0  0  0  0  0  0
   -5.5241    1.1424    0.0000 N   0  0  0  0  0  0  0  0  0  0  0  0
   -6.3965    2.3627    0.0000 C   0  0  0  0  0  0  0  0  0  0  0  0
   -5.7759    3.7283    0.0000 O   0  0  0  0  0  0  0  0  0  0  0  0
   -7.8894    2.2173    0.0000 C   0  0  0  0  0  0  0  0  0  0  0  0
   -9.3420    2.5913    0.0000 C   0  0  0  0  0  0  0  0  0  0  0  0
   -8.2918    3.6623    0.0000 C   0  0  0  0  0  0  0  0  0  0  0  0
   -8.0055    0.7218    0.0000 C   0  0  0  0  0  0  0  0  0  0  0  0
   -6.7684   -0.1265    0.0000 O   0  0  0  0  0  0  0  0  0  0  0  0
   -9.3586    0.0745    0.0000 N   0  0  0  0  0  0  0  0  0  0  0  0
   -9.4747   -1.4210    0.0000 C   0  0  0  0  0  0  0  0  0  0  0  0
  -10.8279   -2.0682    0.0000 C   0  0  0  0  0  0  0  0  0  0  0  0
  -10.9440   -3.5637    0.0000 C   0  0  0  0  0  0  0  0  0  0  0  0
   -9.7068   -4.4120    0.0000 C   0  0  0  0  0  0  0  0  0  0  0  0
   -9.8229   -5.9075    0.0000 F   0  0  0  0  0  0  0  0  0  0  0  0
   -8.3537   -3.7647    0.0000 C   0  0  0  0  0  0  0  0  0  0  0  0
   -8.2376   -2.2692    0.0000 C   0  0  0  0  0  0  0  0  0  0  0  0
  1  2  1  0
  2  3  1  0
  3  4  2  0
  4  5  1  0
  5  6  2  0
  6  7  1  0
  7  8  2  0
  8  9  1  0
  9 10  2  0
 10 11  1  0
 11 12  2  0
 12 13  1  0
 13 14  1  0
 14 15  1  0
 15 16  1  0
 16 17  1  0
 17 18  1  0
 18 19  1  0
 19 20  1  0
 19 21  2  0
  6 22  1  0
 22 23  1  0
 23 24  2  0
 24 25  1  0
 25 26  2  0
 26 27  1  0
 27 28  2  0
 28 29  1  0
 26 30  1  0
 30 31  1  0
 31 32  2  0
 31 33  1  0
 33 34  1  0
 34 35  1  0
 33 36  1  0
 36 37  2  0
 36 38  1  0
 38 39  1  0
 39 40  2  0
 40 41  1  0
 41 42  2  0
 42 43  1  0
 42 44  1  0
 44 45  2  0
 12  3  1  0
 28 23  1  0
 35 33  1  0
 45 39  1  0
 10  5  1  0
M  END
>  <BrandName>  (160) 


>  <Applicants>  (160) 
Beijing Konruns Pharmaceutica

>  <CHEMBL_ID>  (160) 
CHEMBL5314510

>  <Canonical_Smiles>  (160) 
COC1=CC2=C(C=CN=C2C=C1OCCCCCC(O)=O)OC1=CC=C(C=C1F)NC(=O)C1(CC1)C(=O)NC1C=CC(F)=CC=1

>  <Chirality>  (160) 
Unknown

>  <First_Approval>  (160) 
nan

>  <Phase>  (160) 
2.0

>  <SC_Patent>  (160) 
nan

>  <Synonyms>  (160) 
CANLITINIB

>  <Withdrawn>  (160) 
nan

>  <Indications>  (160) 
nan

>  <Type>  (160) 
nan

>  <targets_id>  (160) 
nan

>  <Inchi>  (160) 
InChI=1S/C33H31F2N3O7/c1-43-28-18-23-25(19-29(28)44-16-4-2-3-5-30(39)40)36-15-12-26(23)45-27-11-10-22(17-24(27)35)38-32(42)33(13-14-33)31(41)37-21-8-6-20(34)7-9-21/h6-12,15,17-19H,2-5,13-14,16H2,1H3,(H,37,41)(H,38,42)(H,39,40)

>  <stdInchikey>  (160) 
PCKYITPVOLEZKL-UHFFFAOYSA-N

>  <csid>  (160) 
128942315

>  <Links>  (160) 
|http://www.chemspider.com/Chemical-Structure.128942315.html|https://www.ebi.ac.uk/chembldb/compound/inspect/CHEMBL5314510|https://pubchem.ncbi.nlm.nih.gov/compound/139415233

>  <LinkName>  (160) 
|ChemSpider|ChEMBL|PubChem

>  <lig_pdb_ID>  (160) 


>  <pdb_IDs>  (160) 


>  <indicationDB>  (160) 


>  <uniprotId>  (160) 


>  <indicationG2P>  (160) 


>  <MW>  (160) 
619.2

>  <HBA>  (160) 
7

>  <HBD>  (160) 
3

>  <NRB>  (160) 
14

>  <TPSA>  (160) 
136.1

>  <LogP>  (160) 
6.7

>  <RoF>  (160) 
2

>  <Melting point>  (160) 
nan

>  <Targets>  (160) 
nan

>  <Kinase families>  (160) 


>  <FDA_approved>  (160) 


$$$$
Nemiralisib
     RDKit          2D

 33 38  0  0  0  0  0  0  0  0999 V2000
    9.3898   -1.0894    0.0000 C   0  0  0  0  0  0  0  0  0  0  0  0
    8.8880    0.3241    0.0000 C   0  0  0  0  0  0  0  0  0  0  0  0
    9.8613    1.4655    0.0000 C   0  0  0  0  0  0  0  0  0  0  0  0
    7.4129    0.5963    0.0000 N   0  0  0  0  0  0  0  0  0  0  0  0
    6.4396   -0.5451    0.0000 C   0  0  0  0  0  0  0  0  0  0  0  0
    4.9645   -0.2729    0.0000 C   0  0  0  0  0  0  0  0  0  0  0  0
    4.4627    1.1407    0.0000 N   0  0  0  0  0  0  0  0  0  0  0  0
    5.4360    2.2821    0.0000 C   0  0  0  0  0  0  0  0  0  0  0  0
    6.9111    2.0099    0.0000 C   0  0  0  0  0  0  0  0  0  0  0  0
    2.9876    1.4129    0.0000 C   0  0  0  0  0  0  0  0  0  0  0  0
    2.0143    0.2715    0.0000 C   0  0  0  0  0  0  0  0  0  0  0  0
    2.3656   -1.1868    0.0000 C   0  0  0  0  0  0  0  0  0  0  0  0
    1.0873   -1.9715    0.0000 N   0  0  0  0  0  0  0  0  0  0  0  0
   -0.0541   -0.9983    0.0000 C   0  0  0  0  0  0  0  0  0  0  0  0
    0.5189    0.3880    0.0000 O   0  0  0  0  0  0  0  0  0  0  0  0
   -1.5124   -1.3496    0.0000 C   0  0  0  0  0  0  0  0  0  0  0  0
   -2.5457   -0.2624    0.0000 C   0  0  0  0  0  0  0  0  0  0  0  0
   -4.0040   -0.6137    0.0000 C   0  0  0  0  0  0  0  0  0  0  0  0
   -4.4289   -2.0523    0.0000 C   0  0  0  0  0  0  0  0  0  0  0  0
   -3.3955   -3.1395    0.0000 C   0  0  0  0  0  0  0  0  0  0  0  0
   -1.9372   -2.7882    0.0000 C   0  0  0  0  0  0  0  0  0  0  0  0
   -1.1525   -4.0665    0.0000 C   0  0  0  0  0  0  0  0  0  0  0  0
   -2.1257   -5.2079    0.0000 N   0  0  0  0  0  0  0  0  0  0  0  0
   -3.5120   -4.6350    0.0000 N   0  0  0  0  0  0  0  0  0  0  0  0
   -5.0374    0.4736    0.0000 C   0  0  0  0  0  0  0  0  0  0  0  0
   -6.4957    0.1222    0.0000 C   0  0  0  0  0  0  0  0  0  0  0  0
   -7.5291    1.2095    0.0000 C   0  0  0  0  0  0  0  0  0  0  0  0
   -7.1042    2.6480    0.0000 C   0  0  0  0  0  0  0  0  0  0  0  0
   -5.6459    2.9994    0.0000 C   0  0  0  0  0  0  0  0  0  0  0  0
   -4.6125    1.9121    0.0000 C   0  0  0  0  0  0  0  0  0  0  0  0
   -3.2592    2.5590    0.0000 C   0  0  0  0  0  0  0  0  0  0  0  0
   -3.4561    4.0460    0.0000 C   0  0  0  0  0  0  0  0  0  0  0  0
   -4.9312    4.3182    0.0000 N   0  0  0  0  0  0  0  0  0  0  0  0
  1  2  1  0
  2  3  1  0
  2  4  1  0
  4  5  1  0
  5  6  1  0
  6  7  1  0
  7  8  1  0
  8  9  1  0
  7 10  1  0
 10 11  1  0
 11 12  2  0
 12 13  1  0
 13 14  2  0
 14 15  1  0
 14 16  1  0
 16 17  2  0
 17 18  1  0
 18 19  2  0
 19 20  1  0
 20 21  2  0
 21 22  1  0
 22 23  2  0
 23 24  1  0
 18 25  1  0
 25 26  2  0
 26 27  1  0
 27 28  2  0
 28 29  1  0
 29 30  2  0
 30 31  1  0
 31 32  2  0
 32 33  1  0
  9  4  1  0
 15 11  1  0
 21 16  1  0
 24 20  1  0
 30 25  1  0
 33 29  1  0
M  END
>  <BrandName>  (161) 


>  <Applicants>  (161) 
GlaxosmithKline

>  <CHEMBL_ID>  (161) 
CHEMBL2216859

>  <Canonical_Smiles>  (161) 
CC(C)N1CCN(CC1)Cc2cnc(o2)c3cc(cc4c3cn[nH]4)c5cccc6c5cc[nH]6

>  <Chirality>  (161) 
Achiral Molecule

>  <First_Approval>  (161) 
nan

>  <Phase>  (161) 
2.0

>  <SC_Patent>  (161) 
nan

>  <Synonyms>  (161) 
GSK-2269557 | GSK-2269557 FREE BASE | GSK-2269557A | GSK2269557A | NEMIRALISIB

>  <Withdrawn>  (161) 
{''}

>  <Indications>  (161) 
nan

>  <Type>  (161) 
nan

>  <targets_id>  (161) 
nan

>  <Inchi>  (161) 
InChI=1S/C26H28N6O/c1-17(2)32-10-8-31(9-11-32)16-19-14-28-26(33-19)22-12-18(13-25-23(22)15-29-30-25)20-4-3-5-24-21(20)6-7-27-24/h3-7,12-15,17,27H,8-11,16H2,1-2H3,(H,29,30)

>  <stdInchikey>  (161) 
MCIDWGZGWVSZMK-UHFFFAOYSA-N

>  <csid>  (161) 
28651123

>  <Links>  (161) 
|http://www.chemspider.com/Chemical-Structure.28651123.html|https://www.ebi.ac.uk/chembldb/compound/inspect/CHEMBL2216859|https://pubchem.ncbi.nlm.nih.gov/compound/49784002|https://go.drugbank.com/drugs/DB16253|https://www.rcsb.org/ligand/VVX|https://www.ebi.ac.uk/pdbe-srv/pdbechem/chemicalCompound/show/VVX|https://www.guidetopharmacology.org/GRAC/LigandDisplayForward?9425|https://zinc15.docking.org/substances/ZINC000095564436|https://precision.fda.gov/uniisearch/srs/unii/OEP8JJ3OZR|https://www.bindingdb.org/bind/chemsearch/marvin/MolStructure.jsp?monomerid=50004529

>  <LinkName>  (161) 
|ChemSpider|ChEMBL|PubChem|DrugBank|RCSB|PDBe|Guide to Pharmacology|ZINC|FDA SRS|BindingDB

>  <lig_pdb_ID>  (161) 
VVX

>  <pdb_IDs>  (161) 
5ae8

>  <indicationDB>  (161) 


>  <uniprotId>  (161) 


>  <indicationG2P>  (161) 
None

>  <MW>  (161) 
440.2

>  <HBA>  (161) 
5

>  <HBD>  (161) 
2

>  <NRB>  (161) 
5

>  <TPSA>  (161) 
77.0

>  <LogP>  (161) 
4.9

>  <RoF>  (161) 
0

>  <Melting point>  (161) 
nan

>  <Targets>  (161) 
nan

>  <Kinase families>  (161) 


>  <FDA_approved>  (161) 


$$$$
Eciruciclib
     RDKit          2D

 36 40  0  0  0  0  0  0  0  0999 V2000
    7.4069   -1.3629    0.0000 C   0  0  0  0  0  0  0  0  0  0  0  0
    5.9070   -1.3786    0.0000 C   0  0  0  0  0  0  0  0  0  0  0  0
    5.1435   -0.0875    0.0000 N   0  0  0  0  0  0  0  0  0  0  0  0
    3.6435   -0.1032    0.0000 C   0  0  0  0  0  0  0  0  0  0  0  0
    2.8800    1.1879    0.0000 C   0  0  0  0  0  0  0  0  0  0  0  0
    3.6163    2.4947    0.0000 N   0  0  0  0  0  0  0  0  0  0  0  0
    2.8528    3.7858    0.0000 C   0  0  0  0  0  0  0  0  0  0  0  0
    1.3529    3.7701    0.0000 C   0  0  0  0  0  0  0  0  0  0  0  0
    0.5893    5.0612    0.0000 C   0  0  0  0  0  0  0  0  0  0  0  0
   -0.9106    5.0455    0.0000 C   0  0  0  0  0  0  0  0  0  0  0  0
   -1.6470    3.7387    0.0000 C   0  0  0  0  0  0  0  0  0  0  0  0
   -3.1469    3.7230    0.0000 N   0  0  0  0  0  0  0  0  0  0  0  0
   -3.8832    2.4162    0.0000 C   0  0  0  0  0  0  0  0  0  0  0  0
   -5.3832    2.4005    0.0000 N   0  0  0  0  0  0  0  0  0  0  0  0
   -6.1195    1.0937    0.0000 C   0  0  0  0  0  0  0  0  0  0  0  0
   -5.3560   -0.1975    0.0000 C   0  0  0  0  0  0  0  0  0  0  0  0
   -6.0923   -1.5043    0.0000 F   0  0  0  0  0  0  0  0  0  0  0  0
   -3.8560   -0.1818    0.0000 C   0  0  0  0  0  0  0  0  0  0  0  0
   -3.0925   -1.4729    0.0000 C   0  0  0  0  0  0  0  0  0  0  0  0
   -3.8288   -2.7797    0.0000 C   0  0  0  0  0  0  0  0  0  0  0  0
   -3.0653   -4.0708    0.0000 C   0  0  0  0  0  0  0  0  0  0  0  0
   -1.5654   -4.0551    0.0000 C   0  0  0  0  0  0  0  0  0  0  0  0
   -0.5501   -5.1592    0.0000 N   0  0  0  0  0  0  0  0  0  0  0  0
    0.8138   -4.5348    0.0000 N   0  0  0  0  0  0  0  0  0  0  0  0
    2.1206   -5.2712    0.0000 C   0  0  0  0  0  0  0  0  0  0  0  0
    0.6414   -3.0448    0.0000 C   0  0  0  0  0  0  0  0  0  0  0  0
    1.7455   -2.0295    0.0000 C   0  0  0  0  0  0  0  0  0  0  0  0
    3.1769   -2.4780    0.0000 C   0  0  0  0  0  0  0  0  0  0  0  0
    1.4183   -0.5656    0.0000 C   0  0  0  0  0  0  0  0  0  0  0  0
   -0.8290   -2.7483    0.0000 C   0  0  0  0  0  0  0  0  0  0  0  0
   -1.5926   -1.4572    0.0000 C   0  0  0  0  0  0  0  0  0  0  0  0
   -3.1197    1.1251    0.0000 N   0  0  0  0  0  0  0  0  0  0  0  0
   -0.8834    2.4476    0.0000 N   0  0  0  0  0  0  0  0  0  0  0  0
    0.6165    2.4633    0.0000 C   0  0  0  0  0  0  0  0  0  0  0  0
    5.1163    2.5104    0.0000 C   0  0  0  0  0  0  0  0  0  0  0  0
    5.8798    1.2193    0.0000 C   0  0  0  0  0  0  0  0  0  0  0  0
  1  2  1  0
  2  3  1  0
  3  4  1  0
  4  5  1  0
  5  6  1  0
  6  7  1  0
  7  8  1  0
  8  9  2  0
  9 10  1  0
 10 11  2  0
 11 12  1  0
 12 13  1  0
 13 14  2  0
 14 15  1  0
 15 16  2  0
 16 17  1  0
 16 18  1  0
 18 19  1  0
 19 20  1  0
 20 21  2  0
 21 22  1  0
 22 23  2  0
 23 24  1  0
 24 25  1  0
 24 26  1  0
 26 27  1  0
 27 28  1  0
 27 29  1  0
 26 30  2  0
 30 31  1  0
 18 32  2  0
 11 33  1  0
 33 34  2  0
  6 35  1  0
 35 36  1  0
 36  3  1  0
 34  8  1  0
 32 13  1  0
 31 19  2  0
 30 22  1  0
M  END
>  <BrandName>  (162) 


>  <Applicants>  (162) 
Glixx Labs Inc

>  <CHEMBL_ID>  (162) 
CHEMBL5095060

>  <Canonical_Smiles>  (162) 
CCN1CCN(Cc2ccc(Nc3ncc(F)c(-c4ccc5nn(C)c(C(C)C)c5c4)n3)nc2)CC1

>  <Chirality>  (162) 
Achiral Molecule

>  <First_Approval>  (162) 
nan

>  <Phase>  (162) 
2.0

>  <SC_Patent>  (162) 
nan

>  <Synonyms>  (162) 
ECIRUCICLIB

>  <Withdrawn>  (162) 
nan

>  <Indications>  (162) 
nan

>  <Type>  (162) 
nan

>  <targets_id>  (162) 
nan

>  <Inchi>  (162) 
InChI=1S/C27H33FN8/c1-5-35-10-12-36(13-11-35)17-19-6-9-24(29-15-19)31-27-30-16-22(28)25(32-27)20-7-8-23-21(14-20)26(18(2)3)34(4)33-23/h6-9,14-16,18H,5,10-13,17H2,1-4H3,(H,29,30,31,32)

>  <stdInchikey>  (162) 
RLRQXKXWZNPYRB-UHFFFAOYSA-N

>  <csid>  (162) 
103836221

>  <Links>  (162) 
|http://www.chemspider.com/Chemical-Structure.103836221.html|https://www.ebi.ac.uk/chembldb/compound/inspect/CHEMBL5095060|https://pubchem.ncbi.nlm.nih.gov/compound/118687700

>  <LinkName>  (162) 
|ChemSpider|ChEMBL|PubChem

>  <lig_pdb_ID>  (162) 


>  <pdb_IDs>  (162) 


>  <indicationDB>  (162) 


>  <uniprotId>  (162) 


>  <indicationG2P>  (162) 


>  <MW>  (162) 
488.3

>  <HBA>  (162) 
8

>  <HBD>  (162) 
1

>  <NRB>  (162) 
7

>  <TPSA>  (162) 
75.0

>  <LogP>  (162) 
4.6

>  <RoF>  (162) 
0

>  <Melting point>  (162) 
nan

>  <Targets>  (162) 
nan

>  <Kinase families>  (162) 


>  <FDA_approved>  (162) 


$$$$
Onvansertib
     RDKit          2D

 38 42  0  0  0  0  0  0  0  0999 V2000
    2.3628    5.7948    0.0000 C   0  0  0  0  0  0  0  0  0  0  0  0
    1.2767    4.7603    0.0000 N   0  0  0  0  0  0  0  0  0  0  0  0
    1.6295    3.3024    0.0000 C   0  0  0  0  0  0  0  0  0  0  0  0
    0.5433    2.2679    0.0000 C   0  0  0  0  0  0  0  0  0  0  0  0
   -0.8957    2.6913    0.0000 N   0  0  0  0  0  0  0  0  0  0  0  0
   -1.2485    4.1492    0.0000 C   0  0  0  0  0  0  0  0  0  0  0  0
   -0.1623    5.1837    0.0000 C   0  0  0  0  0  0  0  0  0  0  0  0
   -1.9819    1.6568    0.0000 C   0  0  0  0  0  0  0  0  0  0  0  0
   -3.4209    2.0802    0.0000 C   0  0  0  0  0  0  0  0  0  0  0  0
   -4.5071    1.0457    0.0000 C   0  0  0  0  0  0  0  0  0  0  0  0
   -4.1543   -0.4123    0.0000 C   0  0  0  0  0  0  0  0  0  0  0  0
   -2.7153   -0.8357    0.0000 C   0  0  0  0  0  0  0  0  0  0  0  0
   -1.6291    0.1988    0.0000 C   0  0  0  0  0  0  0  0  0  0  0  0
   -2.3625   -2.2936    0.0000 N   0  0  0  0  0  0  0  0  0  0  0  0
   -0.9235   -2.7170    0.0000 C   0  0  0  0  0  0  0  0  0  0  0  0
   -0.5706   -4.1749    0.0000 N   0  0  0  0  0  0  0  0  0  0  0  0
    0.8684   -4.5983    0.0000 C   0  0  0  0  0  0  0  0  0  0  0  0
    1.9545   -3.5638    0.0000 C   0  0  0  0  0  0  0  0  0  0  0  0
    1.6017   -2.1059    0.0000 C   0  0  0  0  0  0  0  0  0  0  0  0
    0.1627   -1.6825    0.0000 N   0  0  0  0  0  0  0  0  0  0  0  0
    2.6879   -1.0714    0.0000 C   0  0  0  0  0  0  0  0  0  0  0  0
    4.1269   -1.4948    0.0000 C   0  0  0  0  0  0  0  0  0  0  0  0
    4.9743   -0.2571    0.0000 C   0  0  0  0  0  0  0  0  0  0  0  0
    4.0590    0.9313    0.0000 N   0  0  0  0  0  0  0  0  0  0  0  0
    2.6459    0.4280    0.0000 N   0  0  0  0  0  0  0  0  0  0  0  0
    1.4082    1.2754    0.0000 C   0  0  0  0  0  0  0  0  0  0  0  0
    0.0555    0.6272    0.0000 C   0  0  0  0  0  0  0  0  0  0  0  0
   -1.1822    1.4745    0.0000 O   0  0  0  0  0  0  0  0  0  0  0  0
    6.4737   -0.2151    0.0000 C   0  0  0  0  0  0  0  0  0  0  0  0
    7.2598   -1.4926    0.0000 O   0  0  0  0  0  0  0  0  0  0  0  0
    7.1870    1.1044    0.0000 N   0  0  0  0  0  0  0  0  0  0  0  0
    4.4797   -2.9527    0.0000 C   0  0  0  0  0  0  0  0  0  0  0  0
    3.3935   -3.9872    0.0000 C   0  0  0  0  0  0  0  0  0  0  0  0
   -5.2405   -1.4468    0.0000 O   0  0  0  0  0  0  0  0  0  0  0  0
   -6.6795   -1.0233    0.0000 C   0  0  0  0  0  0  0  0  0  0  0  0
   -8.1185   -0.5999    0.0000 F   0  0  0  0  0  0  0  0  0  0  0  0
   -7.1029   -2.4623    0.0000 F   0  0  0  0  0  0  0  0  0  0  0  0
   -6.2560    0.4157    0.0000 F   0  0  0  0  0  0  0  0  0  0  0  0
  1  2  1  0
  2  3  1  0
  3  4  1  0
  4  5  1  0
  5  6  1  0
  6  7  1  0
  5  8  1  0
  8  9  2  0
  9 10  1  0
 10 11  2  0
 11 12  1  0
 12 13  2  0
 12 14  1  0
 14 15  1  0
 15 16  2  0
 16 17  1  0
 17 18  2  0
 18 19  1  0
 19 20  2  0
 19 21  1  0
 21 22  2  0
 22 23  1  0
 23 24  2  0
 24 25  1  0
 25 26  1  0
 26 27  1  0
 27 28  1  0
 23 29  1  0
 29 30  2  0
 29 31  1  0
 22 32  1  0
 32 33  1  0
 11 34  1  0
 34 35  1  0
 35 36  1  0
 35 37  1  0
 35 38  1  0
  7  2  1  0
 13  8  1  0
 20 15  1  0
 33 18  1  0
 25 21  1  0
M  END
>  <BrandName>  (163) 


>  <Applicants>  (163) 
Cardiff Oncology

>  <CHEMBL_ID>  (163) 
CHEMBL1738758

>  <Canonical_Smiles>  (163) 
CN1CCN(CC1)c2ccc(c(c2)Nc3ncc4c(n3)-c5c(c(nn5CCO)C(=O)N)CC4)OC(F)(F)F

>  <Chirality>  (163) 
Achiral Molecule

>  <First_Approval>  (163) 
nan

>  <Phase>  (163) 
2.0

>  <SC_Patent>  (163) 
nan

>  <Synonyms>  (163) 
NMS-1286937 | NMS-P937 | ONVANSERTIB | PCM-075

>  <Withdrawn>  (163) 
{'', 'Study NCT06398587 in United States was Withdrawn during PHASE2 because Sponsor withdrawal'}

>  <Indications>  (163) 
nan

>  <Type>  (163) 
nan

>  <targets_id>  (163) 
nan

>  <Inchi>  (163) 
InChI=1S/C24H27F3N8O3/c1-33-6-8-34(9-7-33)15-3-5-18(38-24(25,26)27)17(12-15)30-23-29-13-14-2-4-16-20(22(28)37)32-35(10-11-36)21(16)19(14)31-23/h3,5,12-13,36H,2,4,6-11H2,1H3,(H2,28,37)(H,29,30,31)

>  <stdInchikey>  (163) 
QHLVBNKYJGBCQJ-UHFFFAOYSA-N

>  <csid>  (163) 
26325993

>  <Links>  (163) 
|http://www.chemspider.com/Chemical-Structure.26325993.html|https://www.ebi.ac.uk/chembldb/compound/inspect/CHEMBL1738758|https://pubchem.ncbi.nlm.nih.gov/compound/49792852|https://go.drugbank.com/drugs/DB15110|https://www.rcsb.org/ligand/937|https://www.ebi.ac.uk/pdbe-srv/pdbechem/chemicalCompound/show/937|https://www.guidetopharmacology.org/GRAC/LigandDisplayForward?7918|https://zinc15.docking.org/substances/ZINC000043196885|https://precision.fda.gov/uniisearch/srs/unii/67RM91WDHQ|https://www.bindingdb.org/bind/chemsearch/marvin/MolStructure.jsp?monomerid=50343559

>  <LinkName>  (163) 
|ChemSpider|ChEMBL|PubChem|DrugBank|RCSB|PDBe|Guide to Pharmacology|ZINC|FDA SRS|BindingDB

>  <lig_pdb_ID>  (163) 
937

>  <pdb_IDs>  (163) 
2yac

>  <indicationDB>  (163) 


>  <uniprotId>  (163) 


>  <indicationG2P>  (163) 
None

>  <MW>  (163) 
532.2

>  <HBA>  (163) 
10

>  <HBD>  (163) 
3

>  <NRB>  (163) 
7

>  <TPSA>  (163) 
134.7

>  <LogP>  (163) 
1.9

>  <RoF>  (163) 
1

>  <Melting point>  (163) 
nan

>  <Targets>  (163) 
nan

>  <Kinase families>  (163) 


>  <FDA_approved>  (163) 


$$$$
Ocifisertib
     RDKit          2D

 40 46  0  0  0  0  0  0  0  0999 V2000
   11.5353   -0.6920    0.0000 C   0  0  0  0  0  0  0  0  0  0  0  0
   11.3687    0.7987    0.0000 O   0  0  0  0  0  0  0  0  0  0  0  0
    9.9944    1.3998    0.0000 C   0  0  0  0  0  0  0  0  0  0  0  0
    9.8278    2.8905    0.0000 C   0  0  0  0  0  0  0  0  0  0  0  0
    8.4535    3.4916    0.0000 C   0  0  0  0  0  0  0  0  0  0  0  0
    7.2458    2.6020    0.0000 C   0  0  0  0  0  0  0  0  0  0  0  0
    7.4124    1.1113    0.0000 C   0  0  0  0  0  0  0  0  0  0  0  0
    8.7867    0.5102    0.0000 C   0  0  0  0  0  0  0  0  0  0  0  0
    6.0461    0.4922    0.0000 C   0  0  0  0  0  0  0  0  0  0  0  0
    6.5190   -0.9313    0.0000 C   0  0  0  0  0  0  0  0  0  0  0  0
    5.0498   -0.6291    0.0000 C   0  0  0  0  0  0  0  0  0  0  0  0
    3.6263   -1.1020    0.0000 C   0  0  0  0  0  0  0  0  0  0  0  0
    2.5050   -0.1056    0.0000 C   0  0  0  0  0  0  0  0  0  0  0  0
    1.0815   -0.5785    0.0000 C   0  0  0  0  0  0  0  0  0  0  0  0
    0.7792   -2.0478    0.0000 C   0  0  0  0  0  0  0  0  0  0  0  0
   -0.5148   -2.8063    0.0000 C   0  0  0  0  0  0  0  0  0  0  0  0
   -1.8891   -2.2052    0.0000 C   0  0  0  0  0  0  0  0  0  0  0  0
   -3.0969   -3.0948    0.0000 C   0  0  0  0  0  0  0  0  0  0  0  0
   -4.4711   -2.4937    0.0000 C   0  0  0  0  0  0  0  0  0  0  0  0
   -4.6377   -1.0030    0.0000 C   0  0  0  0  0  0  0  0  0  0  0  0
   -6.0120   -0.4019    0.0000 C   0  0  0  0  0  0  0  0  0  0  0  0
   -7.2197   -1.2915    0.0000 C   0  0  0  0  0  0  0  0  0  0  0  0
   -8.5940   -0.6904    0.0000 C   0  0  0  0  0  0  0  0  0  0  0  0
   -8.7606    0.8003    0.0000 N   0  0  0  0  0  0  0  0  0  0  0  0
   -7.5529    1.6899    0.0000 C   0  0  0  0  0  0  0  0  0  0  0  0
   -7.7195    3.1806    0.0000 C   0  0  0  0  0  0  0  0  0  0  0  0
   -6.5118    4.0703    0.0000 C   0  0  0  0  0  0  0  0  0  0  0  0
   -9.0938    3.7817    0.0000 O   0  0  0  0  0  0  0  0  0  0  0  0
  -10.3015    2.8921    0.0000 C   0  0  0  0  0  0  0  0  0  0  0  0
  -11.6758    3.4932    0.0000 C   0  0  0  0  0  0  0  0  0  0  0  0
  -10.1349    1.4014    0.0000 C   0  0  0  0  0  0  0  0  0  0  0  0
   -7.0532   -2.7822    0.0000 C   0  0  0  0  0  0  0  0  0  0  0  0
   -5.6789   -3.3833    0.0000 C   0  0  0  0  0  0  0  0  0  0  0  0
   -0.1934   -4.2714    0.0000 N   0  0  0  0  0  0  0  0  0  0  0  0
    1.2994   -4.4184    0.0000 N   0  0  0  0  0  0  0  0  0  0  0  0
    1.9005   -3.0441    0.0000 C   0  0  0  0  0  0  0  0  0  0  0  0
    3.3240   -2.5712    0.0000 C   0  0  0  0  0  0  0  0  0  0  0  0
    5.0351    1.6003    0.0000 C   0  0  0  0  0  0  0  0  0  0  0  0
    3.5444    1.4337    0.0000 O   0  0  0  0  0  0  0  0  0  0  0  0
    5.7766    2.9042    0.0000 N   0  0  0  0  0  0  0  0  0  0  0  0
  1  2  1  0
  2  3  1  0
  3  4  2  0
  4  5  1  0
  5  6  2  0
  6  7  1  0
  7  8  2  0
  7  9  1  0
  9 10  1  6
 10 11  1  0
 11 12  1  1
 12 13  2  0
 13 14  1  0
 14 15  2  0
 15 16  1  0
 16 17  1  0
 17 18  2  0
 18 19  1  0
 19 20  2  0
 20 21  1  0
 21 22  2  0
 22 23  1  0
 23 24  1  0
 24 25  1  0
 25 26  1  0
 26 27  1  6
 26 28  1  0
 28 29  1  0
 29 30  1  6
 29 31  1  0
 22 32  1  0
 32 33  2  0
 16 34  2  0
 34 35  1  0
 35 36  1  0
 36 37  2  0
  9 38  1  0
 38 39  2  0
 38 40  1  0
  8  3  1  0
 11  9  1  0
 37 12  1  0
 40  6  1  0
 36 15  1  0
 33 19  1  0
 31 24  1  0
M  END
>  <BrandName>  (164) 


>  <Applicants>  (164) 
('Treadwell Therapeutics',)

>  <CHEMBL_ID>  (164) 
CHEMBL3408947

>  <Canonical_Smiles>  (164) 
COc1ccc2c(c1)[C@]1(C[C@H]1c1ccc3c(/C=C/c4ccc(CN5C[C@@H](C)O[C@@H](C)C5)cc4)n[nH]c3c1)C(=O)N2

>  <Chirality>  (164) 
Single Stereoisomer

>  <First_Approval>  (164) 
nan

>  <Phase>  (164) 
2.0

>  <SC_Patent>  (164) 
nan

>  <Synonyms>  (164) 
CFI-400945 FREE BASE | OCIFISERTIB

>  <Withdrawn>  (164) 
nan

>  <Indications>  (164) 
nan

>  <Type>  (164) 
nan

>  <targets_id>  (164) 
nan

>  <Inchi>  (164) 
InChI=1S/C33H34N4O3/c1-20-17-37(18-21(2)40-20)19-23-6-4-22(5-7-23)8-12-29-26-11-9-24(14-31(26)36-35-29)28-16-33(28)27-15-25(39-3)10-13-30(27)34-32(33)38/h4-15,20-21,28H,16-19H2,1-3H3,(H,34,38)(H,35,36)/b12-8+/t20-,21+,28-,33-/m0/s1

>  <stdInchikey>  (164) 
DADASRPKWOGKCU-FVTQAUBDSA-N

>  <csid>  (164) 
nan

>  <Links>  (164) 
|http://www.chemspider.com/Chemical-Structure.nan.html|https://www.ebi.ac.uk/chembldb/compound/inspect/CHEMBL3408947|https://pubchem.ncbi.nlm.nih.gov/compound/58486178|https://zinc15.docking.org/substances/ZINC000145048061|https://precision.fda.gov/uniisearch/srs/unii/TL1UD860AA

>  <LinkName>  (164) 
|ChemSpider|ChEMBL|PubChem|ZINC|FDA SRS

>  <lig_pdb_ID>  (164) 


>  <pdb_IDs>  (164) 


>  <indicationDB>  (164) 


>  <uniprotId>  (164) 


>  <indicationG2P>  (164) 


>  <MW>  (164) 
534.3

>  <HBA>  (164) 
5

>  <HBD>  (164) 
2

>  <NRB>  (164) 
6

>  <TPSA>  (164) 
79.5

>  <LogP>  (164) 
5.7

>  <RoF>  (164) 
2

>  <Melting point>  (164) 
nan

>  <Targets>  (164) 
nan

>  <Kinase families>  (164) 


>  <FDA_approved>  (164) 


$$$$
Plixorafenib
     RDKit          2D

 38 43  0  0  0  0  0  0  0  0999 V2000
    1.2086    1.7217    0.0000 O   0  0  0  0  0  0  0  0  0  0  0  0
    0.1891    0.6215    0.0000 C   0  0  0  0  0  0  0  0  0  0  0  0
   -1.2735    0.9543    0.0000 C   0  0  0  0  0  0  0  0  0  0  0  0
   -1.7166    2.3874    0.0000 C   0  0  0  0  0  0  0  0  0  0  0  0
   -0.6970    3.4876    0.0000 F   0  0  0  0  0  0  0  0  0  0  0  0
   -3.1792    2.7203    0.0000 C   0  0  0  0  0  0  0  0  0  0  0  0
   -4.1987    1.6200    0.0000 C   0  0  0  0  0  0  0  0  0  0  0  0
   -3.7557    0.1870    0.0000 C   0  0  0  0  0  0  0  0  0  0  0  0
   -4.7753   -0.9133    0.0000 N   0  0  0  0  0  0  0  0  0  0  0  0
   -6.2379   -0.5804    0.0000 S   0  0  0  0  0  0  0  0  0  0  0  0
   -6.5707   -2.0430    0.0000 O   0  0  0  0  0  0  0  0  0  0  0  0
   -5.9050    0.8822    0.0000 O   0  0  0  0  0  0  0  0  0  0  0  0
   -7.7005   -0.2476    0.0000 N   0  0  0  0  0  0  0  0  0  0  0  0
   -8.8294   -1.2352    0.0000 C   0  0  0  0  0  0  0  0  0  0  0  0
  -10.1176   -0.4667    0.0000 C   0  0  0  0  0  0  0  0  0  0  0  0
   -9.7848    0.9959    0.0000 C   0  0  0  0  0  0  0  0  0  0  0  0
  -10.7724    2.1249    0.0000 F   0  0  0  0  0  0  0  0  0  0  0  0
   -8.2909    1.1313    0.0000 C   0  0  0  0  0  0  0  0  0  0  0  0
   -2.2931   -0.1459    0.0000 C   0  0  0  0  0  0  0  0  0  0  0  0
   -1.8500   -1.5790    0.0000 F   0  0  0  0  0  0  0  0  0  0  0  0
    0.6321   -0.8116    0.0000 C   0  0  0  0  0  0  0  0  0  0  0  0
   -0.2669   -2.0124    0.0000 C   0  0  0  0  0  0  0  0  0  0  0  0
    0.5973   -3.2384    0.0000 N   0  0  0  0  0  0  0  0  0  0  0  0
    2.0304   -2.7954    0.0000 C   0  0  0  0  0  0  0  0  0  0  0  0
    3.3186   -3.5639    0.0000 N   0  0  0  0  0  0  0  0  0  0  0  0
    4.6282   -2.8326    0.0000 C   0  0  0  0  0  0  0  0  0  0  0  0
    4.6497   -1.3327    0.0000 C   0  0  0  0  0  0  0  0  0  0  0  0
    5.9594   -0.6014    0.0000 C   0  0  0  0  0  0  0  0  0  0  0  0
    7.2475   -1.3700    0.0000 C   0  0  0  0  0  0  0  0  0  0  0  0
    8.5572   -0.6386    0.0000 N   0  0  0  0  0  0  0  0  0  0  0  0
    8.5787    0.8612    0.0000 C   0  0  0  0  0  0  0  0  0  0  0  0
    9.8883    1.5925    0.0000 C   0  0  0  0  0  0  0  0  0  0  0  0
   10.6568    2.8807    0.0000 C   0  0  0  0  0  0  0  0  0  0  0  0
   11.3882    1.5710    0.0000 C   0  0  0  0  0  0  0  0  0  0  0  0
    7.2905    1.6297    0.0000 N   0  0  0  0  0  0  0  0  0  0  0  0
    5.9809    0.8984    0.0000 C   0  0  0  0  0  0  0  0  0  0  0  0
    3.3616   -0.5642    0.0000 C   0  0  0  0  0  0  0  0  0  0  0  0
    2.0519   -1.2955    0.0000 C   0  0  0  0  0  0  0  0  0  0  0  0
  1  2  2  0
  2  3  1  0
  3  4  2  0
  4  5  1  0
  4  6  1  0
  6  7  2  0
  7  8  1  0
  8  9  1  0
  9 10  1  0
 10 11  2  0
 10 12  2  0
 10 13  1  0
 13 14  1  0
 14 15  1  0
 15 16  1  0
 16 17  1  1
 16 18  1  0
  8 19  2  0
 19 20  1  0
  2 21  1  0
 21 22  2  0
 22 23  1  0
 23 24  1  0
 24 25  2  0
 25 26  1  0
 26 27  2  0
 27 28  1  0
 28 29  2  0
 29 30  1  0
 30 31  2  0
 31 32  1  0
 32 33  1  0
 33 34  1  0
 31 35  1  0
 35 36  2  0
 27 37  1  0
 37 38  2  0
 19  3  1  0
 38 21  1  0
 18 13  1  0
 38 24  1  0
 36 28  1  0
 34 32  1  0
M  END
>  <BrandName>  (165) 


>  <Applicants>  (165) 
('Daiichi Sankyo',)

>  <CHEMBL_ID>  (165) 
CHEMBL4303729

>  <Canonical_Smiles>  (165) 
O=C(c1c(F)ccc(NS(=O)(=O)N2CC[C@@H](F)C2)c1F)c1c[nH]c2ncc(-c3cnc(C4CC4)nc3)cc12

>  <Chirality>  (165) 
Single Stereoisomer

>  <First_Approval>  (165) 
nan

>  <Phase>  (165) 
2.0

>  <SC_Patent>  (165) 
nan

>  <Synonyms>  (165) 
FORE-8394 | FORE8394 | PLIXORAFENIB | PLX 8394 | PLX-8394 | PLX8394

>  <Withdrawn>  (165) 
nan

>  <Indications>  (165) 
nan

>  <Type>  (165) 
nan

>  <targets_id>  (165) 
nan

>  <Inchi>  (165) 
InChI=1S/C25H21F3N6O3S/c26-16-5-6-34(12-16)38(36,37)33-20-4-3-19(27)21(22(20)28)23(35)18-11-32-25-17(18)7-14(8-31-25)15-9-29-24(30-10-15)13-1-2-13/h3-4,7-11,13,16,33H,1-2,5-6,12H2,(H,31,32)/t16-/m1/s1

>  <stdInchikey>  (165) 
YYACLQUDUDXAPA-MRXNPFEDSA-N

>  <csid>  (165) 
38772338

>  <Links>  (165) 
|http://www.chemspider.com/Chemical-Structure.38772338.html|https://www.ebi.ac.uk/chembldb/compound/inspect/CHEMBL4303729|https://pubchem.ncbi.nlm.nih.gov/compound/90116675|https://go.drugbank.com/drugs/DB16038|https://www.guidetopharmacology.org/GRAC/LigandDisplayForward?9131|https://zinc15.docking.org/substances/ZINC000144705377|https://precision.fda.gov/uniisearch/srs/unii/J2L7Z273SG

>  <LinkName>  (165) 
|ChemSpider|ChEMBL|PubChem|DrugBank|Guide to Pharmacology|ZINC|FDA SRS

>  <lig_pdb_ID>  (165) 


>  <pdb_IDs>  (165) 


>  <indicationDB>  (165) 


>  <uniprotId>  (165) 


>  <indicationG2P>  (165) 
None

>  <MW>  (165) 
542.1

>  <HBA>  (165) 
6

>  <HBD>  (165) 
2

>  <NRB>  (165) 
7

>  <TPSA>  (165) 
120.9

>  <LogP>  (165) 
4.1

>  <RoF>  (165) 
1

>  <Melting point>  (165) 
nan

>  <Targets>  (165) 
nan

>  <Kinase families>  (165) 


>  <FDA_approved>  (165) 


$$$$
Emzeltrectinib
     RDKit          2D

 27 30  0  0  0  0  0  0  0  0999 V2000
   -6.4130    1.2975    0.0000 N   0  0  0  0  0  0  0  0  0  0  0  0
   -4.9130    1.3075    0.0000 C   0  0  0  0  0  0  0  0  0  0  0  0
   -4.1717    2.6116    0.0000 O   0  0  0  0  0  0  0  0  0  0  0  0
   -4.1544    0.0135    0.0000 C   0  0  0  0  0  0  0  0  0  0  0  0
   -4.7553   -1.3608    0.0000 C   0  0  0  0  0  0  0  0  0  0  0  0
   -6.2204   -1.6825    0.0000 N   0  0  0  0  0  0  0  0  0  0  0  0
   -3.6339   -2.3571    0.0000 N   0  0  0  0  0  0  0  0  0  0  0  0
   -2.3399   -1.5984    0.0000 N   0  0  0  0  0  0  0  0  0  0  0  0
   -0.9102   -2.0524    0.0000 C   0  0  0  0  0  0  0  0  0  0  0  0
    0.1977   -1.0412    0.0000 C   0  0  0  0  0  0  0  0  0  0  0  0
   -0.1239    0.4239    0.0000 C   0  0  0  0  0  0  0  0  0  0  0  0
    0.9841    1.4350    0.0000 N   0  0  0  0  0  0  0  0  0  0  0  0
    0.8173    2.9257    0.0000 C   0  0  0  0  0  0  0  0  0  0  0  0
    2.1835    3.5449    0.0000 C   0  0  0  0  0  0  0  0  0  0  0  0
    2.4856    5.0142    0.0000 F   0  0  0  0  0  0  0  0  0  0  0  0
    3.1946    2.4370    0.0000 C   0  0  0  0  0  0  0  0  0  0  0  0
    2.4533    1.1329    0.0000 C   0  0  0  0  0  0  0  0  0  0  0  0
    3.0726   -0.2333    0.0000 C   0  0  0  0  0  0  0  0  0  0  0  0
    2.1990   -1.4527    0.0000 C   0  0  0  0  0  0  0  0  0  0  0  0
    2.8183   -2.8189    0.0000 C   0  0  0  0  0  0  0  0  0  0  0  0
    1.9447   -4.0383    0.0000 F   0  0  0  0  0  0  0  0  0  0  0  0
    4.3111   -2.9657    0.0000 C   0  0  0  0  0  0  0  0  0  0  0  0
    5.1846   -1.7463    0.0000 C   0  0  0  0  0  0  0  0  0  0  0  0
    4.5654   -0.3801    0.0000 C   0  0  0  0  0  0  0  0  0  0  0  0
    5.4389    0.8393    0.0000 F   0  0  0  0  0  0  0  0  0  0  0  0
   -1.5536    0.8778    0.0000 N   0  0  0  0  0  0  0  0  0  0  0  0
   -2.6616   -0.1333    0.0000 C   0  0  0  0  0  0  0  0  0  0  0  0
  1  2  1  0
  2  3  2  0
  2  4  1  0
  4  5  1  0
  5  6  1  0
  5  7  2  0
  7  8  1  0
  8  9  1  0
  9 10  2  0
 10 11  1  0
 11 12  1  0
 12 13  1  0
 13 14  1  0
 14 15  1  1
 14 16  1  0
 16 17  1  0
 17 18  1  6
 18 19  2  0
 19 20  1  0
 20 21  1  0
 20 22  2  0
 22 23  1  0
 23 24  2  0
 24 25  1  0
 11 26  2  0
 26 27  1  0
 27  4  2  0
 27  8  1  0
 17 12  1  0
 24 18  1  0
M  END
>  <BrandName>  (166) 


>  <Applicants>  (166) 
('',)

>  <CHEMBL_ID>  (166) 
CHEMBL5314458

>  <Canonical_Smiles>  (166) 
NC(=O)c1c(N)nn2ccc(N3C[C@@H](F)C[C@@H]3c3cc(F)ccc3F)nc12

>  <Chirality>  (166) 
Unknown

>  <First_Approval>  (166) 
nan

>  <Phase>  (166) 
2.0

>  <SC_Patent>  (166) 
nan

>  <Synonyms>  (166) 
EMZELTRECTINIB

>  <Withdrawn>  (166) 
nan

>  <Indications>  (166) 
nan

>  <Type>  (166) 
nan

>  <targets_id>  (166) 
nan

>  <Inchi>  (166) 
InChI=1S/C17H15F3N6O/c18-8-1-2-11(20)10(5-8)12-6-9(19)7-25(12)13-3-4-26-17(23-13)14(16(22)27)15(21)24-26/h1-5,9,12H,6-7H2,(H2,21,24)(H2,22,27)/t9-,12+/m0/s1

>  <stdInchikey>  (166) 
YFTARXQOKASKBW-JOYOIKCWSA-N

>  <csid>  (166) 
128921902

>  <Links>  (166) 
|http://www.chemspider.com/Chemical-Structure.128921902.html|https://www.ebi.ac.uk/chembldb/compound/inspect/CHEMBL5314458|https://pubchem.ncbi.nlm.nih.gov/compound/134480550|https://www.bindingdb.org/bind/chemsearch/marvin/MolStructure.jsp?monomerid=472759

>  <LinkName>  (166) 
|ChemSpider|ChEMBL|PubChem|BindingDB

>  <lig_pdb_ID>  (166) 


>  <pdb_IDs>  (166) 


>  <indicationDB>  (166) 


>  <uniprotId>  (166) 


>  <indicationG2P>  (166) 


>  <MW>  (166) 
376.1

>  <HBA>  (166) 
6

>  <HBD>  (166) 
2

>  <NRB>  (166) 
3

>  <TPSA>  (166) 
102.5

>  <LogP>  (166) 
2.0

>  <RoF>  (166) 
0

>  <Melting point>  (166) 
nan

>  <Targets>  (166) 
nan

>  <Kinase families>  (166) 


>  <FDA_approved>  (166) 


$$$$
Edecesertib
     RDKit          2D

 32 34  0  0  0  0  0  0  0  0999 V2000
    0.3738    4.7194    0.0000 C   0  0  0  0  0  0  0  0  0  0  0  0
    0.5722    3.2326    0.0000 C   0  0  0  0  0  0  0  0  0  0  0  0
    1.9591    2.6610    0.0000 C   0  0  0  0  0  0  0  0  0  0  0  0
    3.3459    2.0895    0.0000 N   0  0  0  0  0  0  0  0  0  0  0  0
   -0.6162    2.3173    0.0000 N   0  0  0  0  0  0  0  0  0  0  0  0
   -0.4177    0.8305    0.0000 C   0  0  0  0  0  0  0  0  0  0  0  0
    0.9691    0.2589    0.0000 C   0  0  0  0  0  0  0  0  0  0  0  0
    1.1676   -1.2279    0.0000 C   0  0  0  0  0  0  0  0  0  0  0  0
    2.5544   -1.7994    0.0000 C   0  0  0  0  0  0  0  0  0  0  0  0
    2.9072   -3.2573    0.0000 C   0  0  0  0  0  0  0  0  0  0  0  0
    4.4028   -3.3723    0.0000 C   0  0  0  0  0  0  0  0  0  0  0  0
    4.9743   -1.9855    0.0000 C   0  0  0  0  0  0  0  0  0  0  0  0
    6.3874   -1.4823    0.0000 C   0  0  0  0  0  0  0  0  0  0  0  0
    6.6581   -0.0069    0.0000 C   0  0  0  0  0  0  0  0  0  0  0  0
    8.0712    0.4964    0.0000 C   0  0  0  0  0  0  0  0  0  0  0  0
    9.4842    0.9996    0.0000 N   0  0  0  0  0  0  0  0  0  0  0  0
    5.5158    0.9652    0.0000 C   0  0  0  0  0  0  0  0  0  0  0  0
    4.1027    0.4620    0.0000 N   0  0  0  0  0  0  0  0  0  0  0  0
    3.8320   -1.0134    0.0000 N   0  0  0  0  0  0  0  0  0  0  0  0
   -0.0208   -2.1431    0.0000 N   0  0  0  0  0  0  0  0  0  0  0  0
   -1.4077   -1.5716    0.0000 C   0  0  0  0  0  0  0  0  0  0  0  0
   -1.6061   -0.0848    0.0000 C   0  0  0  0  0  0  0  0  0  0  0  0
   -2.9930    0.4868    0.0000 C   0  0  0  0  0  0  0  0  0  0  0  0
   -3.1914    1.9736    0.0000 O   0  0  0  0  0  0  0  0  0  0  0  0
   -4.1814   -0.4285    0.0000 N   0  0  0  0  0  0  0  0  0  0  0  0
   -5.5682    0.1430    0.0000 C   0  0  0  0  0  0  0  0  0  0  0  0
   -6.7566   -0.7723    0.0000 C   0  0  0  0  0  0  0  0  0  0  0  0
   -6.5581   -2.2591    0.0000 F   0  0  0  0  0  0  0  0  0  0  0  0
   -8.1434   -0.2007    0.0000 C   0  0  0  0  0  0  0  0  0  0  0  0
   -7.5719    1.1861    0.0000 C   0  0  0  0  0  0  0  0  0  0  0  0
   -8.7150   -1.5876    0.0000 C   0  0  0  0  0  0  0  0  0  0  0  0
   -9.5303    0.3708    0.0000 O   0  0  0  0  0  0  0  0  0  0  0  0
  2  1  1  6
  2  3  1  0
  3  4  3  0
  2  5  1  0
  5  6  1  0
  6  7  2  0
  7  8  1  0
  8  9  1  0
  9 10  2  0
 10 11  1  0
 11 12  2  0
 12 13  1  0
 13 14  2  0
 14 15  1  0
 15 16  3  0
 14 17  1  0
 17 18  2  0
 18 19  1  0
  8 20  2  0
 20 21  1  0
 21 22  2  0
 22 23  1  0
 23 24  2  0
 23 25  1  0
 25 26  1  0
 26 27  1  0
 27 28  1  1
 27 29  1  0
 29 30  1  0
 29 31  1  0
 29 32  1  0
 22  6  1  0
 19  9  1  0
 19 12  1  0
M  END
>  <BrandName>  (167) 


>  <Applicants>  (167) 
Gilead Sciences

>  <CHEMBL_ID>  (167) 
CHEMBL5095097

>  <Canonical_Smiles>  (167) 
C[C@H](C#N)Nc1cc(-c2ccc3cc(C#N)cnn23)ncc1C(=O)NC[C@@H](F)C(C)(C)O

>  <Chirality>  (167) 
Single Stereoisomer

>  <First_Approval>  (167) 
nan

>  <Phase>  (167) 
2.0

>  <SC_Patent>  (167) 
nan

>  <Synonyms>  (167) 
EDECESERTIB

>  <Withdrawn>  (167) 
nan

>  <Indications>  (167) 
nan

>  <Type>  (167) 
nan

>  <targets_id>  (167) 
nan

>  <Inchi>  (167) 
InChI=1S/C22H22FN7O2/c1-13(8-24)29-17-7-18(19-5-4-15-6-14(9-25)10-28-30(15)19)26-11-16(17)21(31)27-12-20(23)22(2,3)32/h4-7,10-11,13,20,32H,12H2,1-3H3,(H,26,29)(H,27,31)/t13-,20-/m1/s1

>  <stdInchikey>  (167) 
HORBHQPSWJRDSV-ZUOKHONESA-N

>  <csid>  (167) 


>  <Links>  (167) 
|http://www.chemspider.com/Chemical-Structure..html|https://www.ebi.ac.uk/chembldb/compound/inspect/CHEMBL5095097|https://pubchem.ncbi.nlm.nih.gov/compound/147817927

>  <LinkName>  (167) 
|ChemSpider|ChEMBL|PubChem

>  <lig_pdb_ID>  (167) 


>  <pdb_IDs>  (167) 


>  <indicationDB>  (167) 


>  <uniprotId>  (167) 


>  <indicationG2P>  (167) 


>  <MW>  (167) 
435.2

>  <HBA>  (167) 
8

>  <HBD>  (167) 
3

>  <NRB>  (167) 
7

>  <TPSA>  (167) 
139.1

>  <LogP>  (167) 
2.4

>  <RoF>  (167) 
0

>  <Melting point>  (167) 
nan

>  <Targets>  (167) 
nan

>  <Kinase families>  (167) 


>  <FDA_approved>  (167) 


$$$$
Zasocitinib
     RDKit          2D

 34 38  0  0  0  0  0  0  0  0999 V2000
   -2.0189    6.7337    0.0000 C   0  0  0  0  0  0  0  0  0  0  0  0
   -2.9174    5.5325    0.0000 N   0  0  0  0  0  0  0  0  0  0  0  0
   -2.3264    4.1538    0.0000 C   0  0  0  0  0  0  0  0  0  0  0  0
   -0.8370    3.9763    0.0000 C   0  0  0  0  0  0  0  0  0  0  0  0
   -0.2460    2.5976    0.0000 C   0  0  0  0  0  0  0  0  0  0  0  0
    1.2435    2.4200    0.0000 N   0  0  0  0  0  0  0  0  0  0  0  0
    1.8344    1.0414    0.0000 C   0  0  0  0  0  0  0  0  0  0  0  0
    0.9359   -0.1598    0.0000 C   0  0  0  0  0  0  0  0  0  0  0  0
    1.5269   -1.5385    0.0000 C   0  0  0  0  0  0  0  0  0  0  0  0
    3.0163   -1.7160    0.0000 C   0  0  0  0  0  0  0  0  0  0  0  0
    3.9148   -0.5149    0.0000 N   0  0  0  0  0  0  0  0  0  0  0  0
    5.4043   -0.6924    0.0000 C   0  0  0  0  0  0  0  0  0  0  0  0
    5.9952   -2.0711    0.0000 C   0  0  0  0  0  0  0  0  0  0  0  0
    7.4847   -2.2487    0.0000 C   0  0  0  0  0  0  0  0  0  0  0  0
    8.3832   -1.0476    0.0000 C   0  0  0  0  0  0  0  0  0  0  0  0
    7.7922    0.3311    0.0000 C   0  0  0  0  0  0  0  0  0  0  0  0
    6.3028    0.5087    0.0000 N   0  0  0  0  0  0  0  0  0  0  0  0
    3.3239    0.8638    0.0000 C   0  0  0  0  0  0  0  0  0  0  0  0
    4.2224    2.0649    0.0000 O   0  0  0  0  0  0  0  0  0  0  0  0
   -1.1445    1.3965    0.0000 N   0  0  0  0  0  0  0  0  0  0  0  0
   -2.6340    1.5740    0.0000 C   0  0  0  0  0  0  0  0  0  0  0  0
   -3.7625    0.5860    0.0000 C   0  0  0  0  0  0  0  0  0  0  0  0
   -3.6265   -0.9079    0.0000 C   0  0  0  0  0  0  0  0  0  0  0  0
   -2.2649   -1.5370    0.0000 O   0  0  0  0  0  0  0  0  0  0  0  0
   -4.8522   -1.7725    0.0000 N   0  0  0  0  0  0  0  0  0  0  0  0
   -4.7162   -3.2664    0.0000 C   0  0  0  0  0  0  0  0  0  0  0  0
   -5.6764   -4.4188    0.0000 C   0  0  0  0  0  0  0  0  0  0  0  0
   -4.5239   -5.3790    0.0000 C   0  0  0  0  0  0  0  0  0  0  0  0
   -3.5638   -4.2265    0.0000 C   0  0  0  0  0  0  0  0  0  0  0  0
   -2.0700   -4.0905    0.0000 O   0  0  0  0  0  0  0  0  0  0  0  0
   -1.2053   -5.3162    0.0000 C   0  0  0  0  0  0  0  0  0  0  0  0
   -5.0510    1.3540    0.0000 C   0  0  0  0  0  0  0  0  0  0  0  0
   -4.7187    2.8167    0.0000 N   0  0  0  0  0  0  0  0  0  0  0  0
   -3.2249    2.9527    0.0000 N   0  0  0  0  0  0  0  0  0  0  0  0
  1  2  1  0
  2  3  1  0
  3  4  2  0
  4  5  1  0
  5  6  1  0
  6  7  1  0
  7  8  2  0
  8  9  1  0
  9 10  2  0
 10 11  1  0
 11 12  1  0
 12 13  2  0
 13 14  1  0
 14 15  2  0
 15 16  1  0
 16 17  2  0
 11 18  1  0
 18 19  2  0
  5 20  2  0
 20 21  1  0
 21 22  2  0
 22 23  1  0
 23 24  2  0
 23 25  1  0
 26 25  1  1
 26 27  1  0
 27 28  1  0
 28 29  1  0
 29 30  1  6
 30 31  1  0
 22 32  1  0
 32 33  2  0
 33 34  1  0
 34  3  1  0
 18  7  1  0
 34 21  1  0
 17 12  1  0
 29 26  1  0
M  END
>  <BrandName>  (168) 


>  <Applicants>  (168) 
('Takeda',)

>  <CHEMBL_ID>  (168) 
CHEMBL5314423

>  <Canonical_Smiles>  (168) 
CNc1cc(Nc2cccn(-c3ccccn3)c2=O)nc2c(C(=O)N[C@@H]3CC[C@H]3OC)cnn12

>  <Chirality>  (168) 
Single Stereoisomer

>  <First_Approval>  (168) 
nan

>  <Phase>  (168) 
2.0

>  <SC_Patent>  (168) 
nan

>  <Synonyms>  (168) 
NDI-034858 | ZASOCITINIB

>  <Withdrawn>  (168) 
nan

>  <Indications>  (168) 
nan

>  <Type>  (168) 
nan

>  <targets_id>  (168) 
nan

>  <Inchi>  (168) 
InChI=1S/C23H24N8O3/c1-24-20-12-18(27-16-6-5-11-30(23(16)33)19-7-3-4-10-25-19)29-21-14(13-26-31(20)21)22(32)28-15-8-9-17(15)34-2/h3-7,10-13,15,17,24H,8-9H2,1-2H3,(H,27,29)(H,28,32)/t15-,17-/m1/s1

>  <stdInchikey>  (168) 
BWINBHTTZLVXGT-NVXWUHKLSA-N

>  <csid>  (168) 
115277123

>  <Links>  (168) 
|http://www.chemspider.com/Chemical-Structure.115277123.html|https://www.ebi.ac.uk/chembldb/compound/inspect/CHEMBL5314423|https://pubchem.ncbi.nlm.nih.gov/compound/137441492|https://www.rcsb.org/ligand/ZSB|https://www.ebi.ac.uk/pdbe-srv/pdbechem/chemicalCompound/show/ZSB|https://www.bindingdb.org/bind/chemsearch/marvin/MolStructure.jsp?monomerid=424361

>  <LinkName>  (168) 
|ChemSpider|ChEMBL|PubChem|RCSB|PDBe|BindingDB

>  <lig_pdb_ID>  (168) 
ZSB

>  <pdb_IDs>  (168) 
8s9a

>  <indicationDB>  (168) 


>  <uniprotId>  (168) 


>  <indicationG2P>  (168) 


>  <MW>  (168) 
460.2

>  <HBA>  (168) 
10

>  <HBD>  (168) 
3

>  <NRB>  (168) 
7

>  <TPSA>  (168) 
127.5

>  <LogP>  (168) 
2.0

>  <RoF>  (168) 
0

>  <Melting point>  (168) 
nan

>  <Targets>  (168) 
nan

>  <Kinase families>  (168) 


>  <FDA_approved>  (168) 


$$$$
Lepzacitinib
     RDKit          2D

 26 28  0  0  0  0  0  0  0  0999 V2000
    6.4538    4.3290    0.0000 C   0  0  0  0  0  0  0  0  0  0  0  0
    5.0610    3.7720    0.0000 C   0  0  0  0  0  0  0  0  0  0  0  0
    4.8470    2.2874    0.0000 O   0  0  0  0  0  0  0  0  0  0  0  0
    3.4542    1.7304    0.0000 C   0  0  0  0  0  0  0  0  0  0  0  0
    2.2755    2.6581    0.0000 O   0  0  0  0  0  0  0  0  0  0  0  0
    3.2402    0.2458    0.0000 C   0  0  0  0  0  0  0  0  0  0  0  0
    4.4189   -0.6819    0.0000 C   0  0  0  0  0  0  0  0  0  0  0  0
    4.2049   -2.1666    0.0000 N   0  0  0  0  0  0  0  0  0  0  0  0
    2.8121   -2.7235    0.0000 C   0  0  0  0  0  0  0  0  0  0  0  0
    2.2941   -4.1313    0.0000 N   0  0  0  0  0  0  0  0  0  0  0  0
    0.7952   -4.0736    0.0000 C   0  0  0  0  0  0  0  0  0  0  0  0
    0.3869   -2.6302    0.0000 C   0  0  0  0  0  0  0  0  0  0  0  0
    1.6334   -1.7959    0.0000 C   0  0  0  0  0  0  0  0  0  0  0  0
    1.8474   -0.3112    0.0000 C   0  0  0  0  0  0  0  0  0  0  0  0
    0.6687    0.6165    0.0000 N   0  0  0  0  0  0  0  0  0  0  0  0
   -0.7241    0.0595    0.0000 C   0  0  0  0  0  0  0  0  0  0  0  0
   -0.9381   -1.4252    0.0000 C   0  0  0  0  0  0  0  0  0  0  0  0
   -2.3308   -1.9821    0.0000 C   0  0  0  0  0  0  0  0  0  0  0  0
   -3.5096   -1.0544    0.0000 C   0  0  0  0  0  0  0  0  0  0  0  0
   -3.2955    0.4302    0.0000 N   0  0  0  0  0  0  0  0  0  0  0  0
   -4.4743    1.3579    0.0000 C   0  0  0  0  0  0  0  0  0  0  0  0
   -5.8670    0.8009    0.0000 C   0  0  0  0  0  0  0  0  0  0  0  0
   -6.0811   -0.6837    0.0000 O   0  0  0  0  0  0  0  0  0  0  0  0
   -7.0458    1.7286    0.0000 C   0  0  0  0  0  0  0  0  0  0  0  0
   -8.2245    2.6563    0.0000 N   0  0  0  0  0  0  0  0  0  0  0  0
   -1.9028    0.9872    0.0000 C   0  0  0  0  0  0  0  0  0  0  0  0
  1  2  1  0
  2  3  1  0
  3  4  1  0
  4  5  2  0
  4  6  1  0
  6  7  2  0
  7  8  1  0
  8  9  2  0
  9 10  1  0
 10 11  1  0
 11 12  2  0
 12 13  1  0
 13 14  2  0
 14 15  1  0
 16 15  1  6
 16 17  1  0
 17 18  1  0
 18 19  1  0
 19 20  1  0
 20 21  1  0
 21 22  1  0
 22 23  2  0
 22 24  1  0
 24 25  3  0
 20 26  1  0
 14  6  1  0
 26 16  1  0
 13  9  1  0
M  END
>  <BrandName>  (169) 


>  <Applicants>  (169) 
('Aclaris Therapeutics ',)

>  <CHEMBL_ID>  (169) 
CHEMBL5314524

>  <Canonical_Smiles>  (169) 
CCOC(=O)c1cnc2[nH]ccc2c1N[C@@H]1CCCN(CC(=O)C#N)C1

>  <Chirality>  (169) 
Unknown

>  <First_Approval>  (169) 
nan

>  <Phase>  (169) 
2.0

>  <SC_Patent>  (169) 
nan

>  <Synonyms>  (169) 
LEPZACITINIB

>  <Withdrawn>  (169) 
nan

>  <Indications>  (169) 
nan

>  <Type>  (169) 
nan

>  <targets_id>  (169) 
nan

>  <Inchi>  (169) 
InChI=1S/C18H21N5O3/c1-2-26-18(25)15-9-21-17-14(5-6-20-17)16(15)22-12-4-3-7-23(10-12)11-13(24)8-19/h5-6,9,12H,2-4,7,10-11H2,1H3,(H2,20,21,22)/t12-/m1/s1

>  <stdInchikey>  (169) 
PGNWVGJKLCGSBL-GFCCVEGCSA-N

>  <csid>  (169) 
nan

>  <Links>  (169) 
|http://www.chemspider.com/Chemical-Structure.nan.html|https://www.ebi.ac.uk/chembldb/compound/inspect/CHEMBL5314524

>  <LinkName>  (169) 
|ChemSpider|ChEMBL

>  <lig_pdb_ID>  (169) 


>  <pdb_IDs>  (169) 


>  <indicationDB>  (169) 


>  <uniprotId>  (169) 


>  <indicationG2P>  (169) 


>  <MW>  (169) 
355.2

>  <HBA>  (169) 
7

>  <HBD>  (169) 
2

>  <NRB>  (169) 
6

>  <TPSA>  (169) 
111.1

>  <LogP>  (169) 
1.7

>  <RoF>  (169) 
0

>  <Melting point>  (169) 
nan

>  <Targets>  (169) 
nan

>  <Kinase families>  (169) 


>  <FDA_approved>  (169) 


$$$$
Milciclib
     RDKit          2D

 34 38  0  0  0  0  0  0  0  0999 V2000
   -6.0997   -1.8298    0.0000 C   0  0  0  0  0  0  0  0  0  0  0  0
   -4.6009   -1.7684    0.0000 C   0  0  0  0  0  0  0  0  0  0  0  0
   -3.1716   -2.2233    0.0000 C   0  0  0  0  0  0  0  0  0  0  0  0
   -2.0629   -1.2128    0.0000 C   0  0  0  0  0  0  0  0  0  0  0  0
   -0.6336   -1.6677    0.0000 C   0  0  0  0  0  0  0  0  0  0  0  0
    0.4751   -0.6573    0.0000 N   0  0  0  0  0  0  0  0  0  0  0  0
    0.1543    0.8080    0.0000 C   0  0  0  0  0  0  0  0  0  0  0  0
   -1.2750    1.2629    0.0000 N   0  0  0  0  0  0  0  0  0  0  0  0
   -2.3836    0.2525    0.0000 C   0  0  0  0  0  0  0  0  0  0  0  0
   -3.8130    0.7074    0.0000 C   0  0  0  0  0  0  0  0  0  0  0  0
   -4.9216   -0.3030    0.0000 C   0  0  0  0  0  0  0  0  0  0  0  0
   -6.2252    0.4391    0.0000 C   0  0  0  0  0  0  0  0  0  0  0  0
   -5.9222    1.9082    0.0000 N   0  0  0  0  0  0  0  0  0  0  0  0
   -4.4314    2.0740    0.0000 N   0  0  0  0  0  0  0  0  0  0  0  0
   -3.6892    3.3775    0.0000 C   0  0  0  0  0  0  0  0  0  0  0  0
   -7.5918   -0.1793    0.0000 C   0  0  0  0  0  0  0  0  0  0  0  0
   -7.7396   -1.6720    0.0000 O   0  0  0  0  0  0  0  0  0  0  0  0
   -8.8106    0.6951    0.0000 N   0  0  0  0  0  0  0  0  0  0  0  0
  -10.1772    0.0767    0.0000 C   0  0  0  0  0  0  0  0  0  0  0  0
    1.2630    1.8184    0.0000 N   0  0  0  0  0  0  0  0  0  0  0  0
    2.6923    1.3635    0.0000 C   0  0  0  0  0  0  0  0  0  0  0  0
    3.0131   -0.1018    0.0000 C   0  0  0  0  0  0  0  0  0  0  0  0
    4.4424   -0.5567    0.0000 C   0  0  0  0  0  0  0  0  0  0  0  0
    5.5511    0.4537    0.0000 C   0  0  0  0  0  0  0  0  0  0  0  0
    5.2303    1.9190    0.0000 C   0  0  0  0  0  0  0  0  0  0  0  0
    3.8010    2.3739    0.0000 C   0  0  0  0  0  0  0  0  0  0  0  0
    6.9804   -0.0012    0.0000 N   0  0  0  0  0  0  0  0  0  0  0  0
    7.3011   -1.4665    0.0000 C   0  0  0  0  0  0  0  0  0  0  0  0
    8.7305   -1.9214    0.0000 C   0  0  0  0  0  0  0  0  0  0  0  0
    9.8391   -0.9110    0.0000 N   0  0  0  0  0  0  0  0  0  0  0  0
    9.5184    0.5543    0.0000 C   0  0  0  0  0  0  0  0  0  0  0  0
    8.0891    1.0092    0.0000 C   0  0  0  0  0  0  0  0  0  0  0  0
   11.2685   -1.3659    0.0000 C   0  0  0  0  0  0  0  0  0  0  0  0
   -4.8007   -3.2550    0.0000 C   0  0  0  0  0  0  0  0  0  0  0  0
  1  2  1  0
  2  3  1  0
  3  4  1  0
  4  5  2  0
  5  6  1  0
  6  7  2  0
  7  8  1  0
  8  9  2  0
  9 10  1  0
 10 11  2  0
 11 12  1  0
 12 13  2  0
 13 14  1  0
 14 15  1  0
 12 16  1  0
 16 17  2  0
 16 18  1  0
 18 19  1  0
  7 20  1  0
 20 21  1  0
 21 22  2  0
 22 23  1  0
 23 24  2  0
 24 25  1  0
 25 26  2  0
 24 27  1  0
 27 28  1  0
 28 29  1  0
 29 30  1  0
 30 31  1  0
 31 32  1  0
 30 33  1  0
  2 34  1  0
 11  2  1  0
  9  4  1  0
 14 10  1  0
 26 21  1  0
 32 27  1  0
M  END
>  <BrandName>  (170) 


>  <Applicants>  (170) 
Nerviano Medical Sciences

>  <CHEMBL_ID>  (170) 
CHEMBL564829

>  <Canonical_Smiles>  (170) 
CC1(Cc2cnc(nc2-c3c1c(nn3C)C(=O)NC)Nc4ccc(cc4)N5CCN(CC5)C)C

>  <Chirality>  (170) 
Achiral Molecule

>  <First_Approval>  (170) 
nan

>  <Phase>  (170) 
2.0

>  <SC_Patent>  (170) 
nan

>  <Synonyms>  (170) 
MILCICLIB | PHA 848125 | PHA-848125

>  <Withdrawn>  (170) 
nan

>  <Indications>  (170) 
nan

>  <Type>  (170) 
1

>  <targets_id>  (170) 
P06493|P04629

>  <Inchi>  (170) 
InChI=1S/C25H32N8O/c1-25(2)14-16-15-27-24(29-20(16)22-19(25)21(23(34)26-3)30-32(22)5)28-17-6-8-18(9-7-17)33-12-10-31(4)11-13-33/h6-9,15H,10-14H2,1-5H3,(H,26,34)(H,27,28,29)

>  <stdInchikey>  (170) 
RXZMYLDMFYNEIM-UHFFFAOYSA-N

>  <csid>  (170) 
16788113

>  <Links>  (170) 
|http://www.chemspider.com/Chemical-Structure.16788113.html|https://www.ebi.ac.uk/chembldb/compound/inspect/CHEMBL564829|https://pubchem.ncbi.nlm.nih.gov/compound/16718576|https://go.drugbank.com/drugs/DB16232|https://www.rcsb.org/ligand/P48|https://www.ebi.ac.uk/pdbe-srv/pdbechem/chemicalCompound/show/P48|https://www.guidetopharmacology.org/GRAC/LigandDisplayForward?7938|https://zinc15.docking.org/substances/ZINC000053119602|https://precision.fda.gov/uniisearch/srs/unii/688000M8S8|https://www.bindingdb.org/bind/chemsearch/marvin/MolStructure.jsp?monomerid=31545

>  <LinkName>  (170) 
|ChemSpider|ChEMBL|PubChem|DrugBank|RCSB|PDBe|Guide to Pharmacology|ZINC|FDA SRS|BindingDB

>  <lig_pdb_ID>  (170) 
P48

>  <pdb_IDs>  (170) 
2wih 5vc6 5vd1

>  <indicationDB>  (170) 


>  <uniprotId>  (170) 


>  <indicationG2P>  (170) 
None

>  <MW>  (170) 
460.3

>  <HBA>  (170) 
8

>  <HBD>  (170) 
2

>  <NRB>  (170) 
4

>  <TPSA>  (170) 
91.2

>  <LogP>  (170) 
2.6

>  <RoF>  (170) 
0

>  <Melting point>  (170) 
nan

>  <Targets>  (170) 
CDK1; NTRK1

>  <Kinase families>  (170) 
Tyr<br>CMGC

>  <FDA_approved>  (170) 


$$$$
Tarloxotinib
     RDKit          2D

 39 41  0  0  0  0  0  0  0  0999 V2000
   -5.5014    1.0971    0.0000 C   0  0  0  0  0  0  0  0  0  0  0  0
   -7.0006    1.1446    0.0000 N   0  0  0  0  0  0  0  0  0  0  0  0
   -7.8434    2.3855    0.0000 C   0  0  0  0  0  0  0  0  0  0  0  0
   -9.2839    1.9675    0.0000 N   0  0  0  0  0  0  0  0  0  0  0  0
   -9.3315    0.4682    0.0000 C   0  0  0  0  0  0  0  0  0  0  0  0
   -7.9203   -0.0403    0.0000 C   0  0  0  0  0  0  0  0  0  0  0  0
   -7.5023   -1.4809    0.0000 C   0  0  0  0  0  0  0  0  0  0  0  0
   -6.0457   -1.8391    0.0000 N   0  0  0  0  0  4  0  0  0  0  0  0
   -5.6874   -0.3825    0.0000 C   0  0  0  0  0  0  0  0  0  0  0  0
   -6.4039   -3.2957    0.0000 C   0  0  0  0  0  0  0  0  0  0  0  0
   -4.5891   -2.1973    0.0000 C   0  0  0  0  0  0  0  0  0  0  0  0
   -3.5505   -1.1150    0.0000 C   0  0  0  0  0  0  0  0  0  0  0  0
   -2.0939   -1.4733    0.0000 C   0  0  0  0  0  0  0  0  0  0  0  0
   -1.0554   -0.3909    0.0000 C   0  0  0  0  0  0  0  0  0  0  0  0
   -1.4735    1.0496    0.0000 O   0  0  0  0  0  0  0  0  0  0  0  0
    0.4012   -0.7492    0.0000 N   0  0  0  0  0  0  0  0  0  0  0  0
    1.4397    0.3332    0.0000 C   0  0  0  0  0  0  0  0  0  0  0  0
    2.8963   -0.0251    0.0000 C   0  0  0  0  0  0  0  0  0  0  0  0
    3.9349    1.0573    0.0000 C   0  0  0  0  0  0  0  0  0  0  0  0
    3.5168    2.4978    0.0000 C   0  0  0  0  0  0  0  0  0  0  0  0
    2.0602    2.8561    0.0000 C   0  0  0  0  0  0  0  0  0  0  0  0
    1.0217    1.7737    0.0000 N   0  0  0  0  0  0  0  0  0  0  0  0
    4.5553    3.5802    0.0000 N   0  0  0  0  0  0  0  0  0  0  0  0
    6.0119    3.2219    0.0000 C   0  0  0  0  0  0  0  0  0  0  0  0
    6.4300    1.7814    0.0000 N   0  0  0  0  0  0  0  0  0  0  0  0
    5.3915    0.6990    0.0000 C   0  0  0  0  0  0  0  0  0  0  0  0
    5.8095   -0.7415    0.0000 N   0  0  0  0  0  0  0  0  0  0  0  0
    7.2661   -1.0998    0.0000 C   0  0  0  0  0  0  0  0  0  0  0  0
    7.6842   -2.5403    0.0000 C   0  0  0  0  0  0  0  0  0  0  0  0
    9.1408   -2.8986    0.0000 C   0  0  0  0  0  0  0  0  0  0  0  0
   10.1793   -1.8162    0.0000 C   0  0  0  0  0  0  0  0  0  0  0  0
    9.7612   -0.3757    0.0000 C   0  0  0  0  0  0  0  0  0  0  0  0
    8.3046   -0.0174    0.0000 C   0  0  0  0  0  0  0  0  0  0  0  0
   10.7998    0.7066    0.0000 Br  0  0  0  0  0  0  0  0  0  0  0  0
   11.6359   -2.1745    0.0000 Cl  0  0  0  0  0  0  0  0  0  0  0  0
  -10.5724   -0.3745    0.0000 N   0  0  0  0  0  4  0  0  0  0  0  0
  -10.4630   -1.8705    0.0000 O   0  0  0  0  0  0  0  0  0  0  0  0
  -11.9227    0.2787    0.0000 O   0  0  0  0  0  1  0  0  0  0  0  0
    0.0000    4.5802    0.0000 Br  0  0  0  0  0 15  0  0  0  0  0  0
  1  2  1  0
  2  3  1  0
  3  4  2  0
  4  5  1  0
  5  6  2  0
  6  7  1  0
  7  8  1  0
  8  9  1  0
  8 10  1  0
  8 11  1  0
 11 12  1  0
 12 13  2  0
 13 14  1  0
 14 15  2  0
 14 16  1  0
 16 17  1  0
 17 18  2  0
 18 19  1  0
 19 20  2  0
 20 21  1  0
 21 22  2  0
 20 23  1  0
 23 24  2  0
 24 25  1  0
 25 26  2  0
 26 27  1  0
 27 28  1  0
 28 29  2  0
 29 30  1  0
 30 31  2  0
 31 32  1  0
 32 33  2  0
 32 34  1  0
 31 35  1  0
  5 36  1  0
 36 37  2  0
 36 38  1  0
  6  2  1  0
 22 17  1  0
 26 19  1  0
 33 28  1  0
M  CHG  4   8   1  36   1  38  -1  39  -1
M  END
>  <BrandName>  (171) 


>  <Applicants>  (171) 
Threshold Pharmaceuticals

>  <CHEMBL_ID>  (171) 
CHEMBL4297661

>  <Canonical_Smiles>  (171) 
Cn1cnc(c1C[N+](C)(C)C/C=C/C(=O)Nc2cc3c(cn2)ncnc3Nc4ccc(c(c4)Br)Cl)[N+](=O)[O-].[Br-]

>  <Chirality>  (171) 
Achiral Molecule

>  <First_Approval>  (171) 
nan

>  <Phase>  (171) 
2.0

>  <SC_Patent>  (171) 
nan

>  <Synonyms>  (171) 
BROMURE DE TARLOXOTINIB | BROMURO DE TARLOXOTINIB | TARLOXOTINIB BROMIDE

>  <Withdrawn>  (171) 
nan

>  <Indications>  (171) 
nan

>  <Type>  (171) 
nan

>  <targets_id>  (171) 
P00533

>  <Inchi>  (171) 
InChI=1S/C24H23BrClN9O3/c1-33-14-30-24(34(37)38)20(33)12-35(2,3)8-4-5-22(36)32-21-10-16-19(11-27-21)28-13-29-23(16)31-15-6-7-18(26)17(25)9-15/h4-7,9-11,13-14H,8,12H2,1-3H3,(H-,27,28,29,31,32,36)/p+1/b5-4+

>  <stdInchikey>  (171) 
WAKIMVYUBWMMHJ-FXRZFVDSSA-N

>  <csid>  (171) 
46518771

>  <Links>  (171) 
|http://www.chemspider.com/Chemical-Structure.46518771.html|https://www.ebi.ac.uk/chembldb/compound/inspect/CHEMBL4297662|https://pubchem.ncbi.nlm.nih.gov/compound/51038315|https://precision.fda.gov/uniisearch/srs/unii/3Y31FJ8K50

>  <LinkName>  (171) 
|ChemSpider|ChEMBL|PubChem|FDA SRS

>  <lig_pdb_ID>  (171) 


>  <pdb_IDs>  (171) 


>  <indicationDB>  (171) 


>  <uniprotId>  (171) 


>  <indicationG2P>  (171) 


>  <MW>  (171) 
679.0

>  <HBA>  (171) 
9

>  <HBD>  (171) 
2

>  <NRB>  (171) 
9

>  <TPSA>  (171) 
140.8

>  <LogP>  (171) 
1.6

>  <RoF>  (171) 
1

>  <Melting point>  (171) 
nan

>  <Targets>  (171) 
EGFR

>  <Kinase families>  (171) 
Tyr

>  <FDA_approved>  (171) 


$$$$
Foslinanib
     RDKit          2D

 25 27  0  0  0  0  0  0  0  0999 V2000
    5.1788   -2.7093    0.0000 C   0  0  0  0  0  0  0  0  0  0  0  0
    4.4959   -1.3738    0.0000 O   0  0  0  0  0  0  0  0  0  0  0  0
    2.9978   -1.2974    0.0000 C   0  0  0  0  0  0  0  0  0  0  0  0
    2.1827   -2.5566    0.0000 C   0  0  0  0  0  0  0  0  0  0  0  0
    0.6846   -2.4803    0.0000 C   0  0  0  0  0  0  0  0  0  0  0  0
    0.0017   -1.1447    0.0000 C   0  0  0  0  0  0  0  0  0  0  0  0
    0.8169    0.1144    0.0000 C   0  0  0  0  0  0  0  0  0  0  0  0
    2.3149    0.0381    0.0000 C   0  0  0  0  0  0  0  0  0  0  0  0
    3.1301    1.2973    0.0000 O   0  0  0  0  0  0  0  0  0  0  0  0
    4.6282    1.2209    0.0000 P   0  0  0  0  0  0  0  0  0  0  0  0
    4.7045    2.7190    0.0000 O   0  0  0  0  0  0  0  0  0  0  0  0
    4.5518   -0.2772    0.0000 O   0  0  0  0  0  0  0  0  0  0  0  0
    6.1262    1.1445    0.0000 O   0  0  0  0  0  0  0  0  0  0  0  0
    0.1340    1.4500    0.0000 C   0  0  0  0  0  0  0  0  0  0  0  0
    0.9491    2.7092    0.0000 O   0  0  0  0  0  0  0  0  0  0  0  0
   -1.3641    1.5263    0.0000 C   0  0  0  0  0  0  0  0  0  0  0  0
   -2.1792    0.2672    0.0000 C   0  0  0  0  0  0  0  0  0  0  0  0
   -1.4963   -1.0684    0.0000 N   0  0  0  0  0  0  0  0  0  0  0  0
   -3.6773    0.3435    0.0000 C   0  0  0  0  0  0  0  0  0  0  0  0
   -4.3602    1.6791    0.0000 C   0  0  0  0  0  0  0  0  0  0  0  0
   -5.8582    1.7554    0.0000 C   0  0  0  0  0  0  0  0  0  0  0  0
   -6.6734    0.4962    0.0000 C   0  0  0  0  0  0  0  0  0  0  0  0
   -5.9905   -0.8393    0.0000 C   0  0  0  0  0  0  0  0  0  0  0  0
   -4.4924   -0.9156    0.0000 C   0  0  0  0  0  0  0  0  0  0  0  0
   -6.8056   -2.0985    0.0000 F   0  0  0  0  0  0  0  0  0  0  0  0
  1  2  1  0
  2  3  1  0
  3  4  2  0
  4  5  1  0
  5  6  2  0
  6  7  1  0
  7  8  2  0
  8  9  1  0
  9 10  1  0
 10 11  2  0
 10 12  1  0
 10 13  1  0
  7 14  1  0
 14 15  2  0
 14 16  1  0
 16 17  2  0
 17 18  1  0
 17 19  1  0
 19 20  2  0
 20 21  1  0
 21 22  2  0
 22 23  1  0
 23 24  2  0
 23 25  1  0
  8  3  1  0
 18  6  1  0
 24 19  1  0
M  END
>  <BrandName>  (172) 


>  <Applicants>  (172) 
TaiRx

>  <CHEMBL_ID>  (172) 
CHEMBL1615993

>  <Canonical_Smiles>  (172) 
COc1ccc2c(c1OP(=O)(O)O)c(=O)cc([nH]2)c3cccc(c3)F

>  <Chirality>  (172) 
Achiral Molecule

>  <First_Approval>  (172) 
nan

>  <Phase>  (172) 
2.0

>  <SC_Patent>  (172) 
nan

>  <Synonyms>  (172) 
CVM-1118 | CVM-1118 FREE ACID | FOSLINANIB | TRX 818 | TRX-818 | TRX-818 FREE ACID

>  <Withdrawn>  (172) 
nan

>  <Indications>  (172) 
nan

>  <Type>  (172) 
nan

>  <targets_id>  (172) 
nan

>  <Inchi>  (172) 
InChI=1S/C16H13FNO6P/c1-23-14-6-5-11-15(16(14)24-25(20,21)22)13(19)8-12(18-11)9-3-2-4-10(17)7-9/h2-8H,1H3,(H,18,19)(H2,20,21,22)

>  <stdInchikey>  (172) 
ZDWFMAHQGDEALT-UHFFFAOYSA-N

>  <csid>  (172) 
26374637

>  <Links>  (172) 
|http://www.chemspider.com/Chemical-Structure.26374637.html|https://www.ebi.ac.uk/chembldb/compound/inspect/CHEMBL1615993|https://pubchem.ncbi.nlm.nih.gov/compound/49840582|https://go.drugbank.com/drugs/DB16172|https://zinc15.docking.org/substances/ZINC000064447756|https://precision.fda.gov/uniisearch/srs/unii/2X2DNM7NGX

>  <LinkName>  (172) 
|ChemSpider|ChEMBL|PubChem|DrugBank|ZINC|FDA SRS

>  <lig_pdb_ID>  (172) 


>  <pdb_IDs>  (172) 


>  <indicationDB>  (172) 


>  <uniprotId>  (172) 


>  <indicationG2P>  (172) 


>  <MW>  (172) 
365.0

>  <HBA>  (172) 
4

>  <HBD>  (172) 
3

>  <NRB>  (172) 
4

>  <TPSA>  (172) 
108.8

>  <LogP>  (172) 
2.8

>  <RoF>  (172) 
0

>  <Melting point>  (172) 
nan

>  <Targets>  (172) 
nan

>  <Kinase families>  (172) 


>  <FDA_approved>  (172) 


$$$$
Ifebemtinib
     RDKit          2D

 42 46  0  0  0  0  0  0  0  0999 V2000
   -2.1047   -6.5247    0.0000 C   0  0  0  0  0  0  0  0  0  0  0  0
   -0.8899   -5.6447    0.0000 O   0  0  0  0  0  0  0  0  0  0  0  0
   -1.0446   -4.1527    0.0000 C   0  0  0  0  0  0  0  0  0  0  0  0
   -2.4141   -3.5407    0.0000 C   0  0  0  0  0  0  0  0  0  0  0  0
   -2.5688   -2.0487    0.0000 C   0  0  0  0  0  0  0  0  0  0  0  0
   -3.9382   -1.4367    0.0000 C   0  0  0  0  0  0  0  0  0  0  0  0
   -5.1530   -2.3166    0.0000 O   0  0  0  0  0  0  0  0  0  0  0  0
   -4.0929    0.0554    0.0000 N   0  0  0  0  0  0  0  0  0  0  0  0
   -5.4624    0.6674    0.0000 C   0  0  0  0  0  0  0  0  0  0  0  0
   -5.6171    2.1594    0.0000 C   0  0  0  0  0  0  0  0  0  0  0  0
   -6.9865    2.7714    0.0000 C   0  0  0  0  0  0  0  0  0  0  0  0
   -8.2013    1.8915    0.0000 N   0  0  0  0  0  0  0  0  0  0  0  0
   -9.5707    2.5035    0.0000 C   0  0  0  0  0  0  0  0  0  0  0  0
   -8.0466    0.3995    0.0000 C   0  0  0  0  0  0  0  0  0  0  0  0
   -6.6771   -0.2126    0.0000 C   0  0  0  0  0  0  0  0  0  0  0  0
   -1.3540   -1.1687    0.0000 C   0  0  0  0  0  0  0  0  0  0  0  0
   -1.5087    0.3233    0.0000 F   0  0  0  0  0  0  0  0  0  0  0  0
    0.0155   -1.7808    0.0000 C   0  0  0  0  0  0  0  0  0  0  0  0
    0.1702   -3.2728    0.0000 C   0  0  0  0  0  0  0  0  0  0  0  0
    1.5396   -3.8848    0.0000 N   0  0  0  0  0  0  0  0  0  0  0  0
    2.7544   -3.0048    0.0000 C   0  0  0  0  0  0  0  0  0  0  0  0
    4.1238   -3.6169    0.0000 N   0  0  0  0  0  0  0  0  0  0  0  0
    5.3386   -2.7369    0.0000 C   0  0  0  0  0  0  0  0  0  0  0  0
    5.1839   -1.2449    0.0000 C   0  0  0  0  0  0  0  0  0  0  0  0
    6.3987   -0.3649    0.0000 C   0  0  0  0  0  0  0  0  0  0  0  0
    7.6134    0.5150    0.0000 F   0  0  0  0  0  0  0  0  0  0  0  0
    7.2787   -1.5797    0.0000 F   0  0  0  0  0  0  0  0  0  0  0  0
    5.5187    0.8498    0.0000 F   0  0  0  0  0  0  0  0  0  0  0  0
    3.8145   -0.6329    0.0000 C   0  0  0  0  0  0  0  0  0  0  0  0
    3.6598    0.8592    0.0000 O   0  0  0  0  0  0  0  0  0  0  0  0
    2.2903    1.4712    0.0000 C   0  0  0  0  0  0  0  0  0  0  0  0
    1.0755    0.5912    0.0000 C   0  0  0  0  0  0  0  0  0  0  0  0
   -0.2939    1.2033    0.0000 C   0  0  0  0  0  0  0  0  0  0  0  0
   -0.4486    2.6953    0.0000 C   0  0  0  0  0  0  0  0  0  0  0  0
    0.7662    3.5752    0.0000 C   0  0  0  0  0  0  0  0  0  0  0  0
    2.1356    2.9632    0.0000 C   0  0  0  0  0  0  0  0  0  0  0  0
    3.1409    4.0765    0.0000 C   0  0  0  0  0  0  0  0  0  0  0  0
    4.6324    3.9176    0.0000 O   0  0  0  0  0  0  0  0  0  0  0  0
    2.3927    5.3766    0.0000 N   0  0  0  0  0  0  0  0  0  0  0  0
    3.0048    6.7460    0.0000 C   0  0  0  0  0  0  0  0  0  0  0  0
    0.9251    5.0668    0.0000 C   0  0  0  0  0  0  0  0  0  0  0  0
    2.5997   -1.5128    0.0000 N   0  0  0  0  0  0  0  0  0  0  0  0
  1  2  1  0
  2  3  1  0
  3  4  2  0
  4  5  1  0
  5  6  1  0
  6  7  2  0
  6  8  1  0
  8  9  1  0
  9 10  1  0
 10 11  1  0
 11 12  1  0
 12 13  1  0
 12 14  1  0
 14 15  1  0
  5 16  2  0
 16 17  1  0
 16 18  1  0
 18 19  2  0
 19 20  1  0
 20 21  1  0
 21 22  2  0
 22 23  1  0
 23 24  2  0
 24 25  1  0
 25 26  1  0
 25 27  1  0
 25 28  1  0
 24 29  1  0
 29 30  1  0
 30 31  1  0
 31 32  2  0
 32 33  1  0
 33 34  2  0
 34 35  1  0
 35 36  2  0
 36 37  1  0
 37 38  2  0
 37 39  1  0
 39 40  1  0
 39 41  1  0
 29 42  2  0
 19  3  1  0
 42 21  1  0
 15  9  1  0
 36 31  1  0
 41 35  1  0
M  END
>  <BrandName>  (173) 


>  <Applicants>  (173) 
('InxMed',)

>  <CHEMBL_ID>  (173) 
CHEMBL3657311

>  <Canonical_Smiles>  (173) 
COc1cc(C(=O)NC2CCN(C)CC2)c(F)cc1Nc1ncc(C(F)(F)F)c(Oc2cccc3c2C(=O)N(C)C3)n1

>  <Chirality>  (173) 
Achiral Molecule

>  <First_Approval>  (173) 
nan

>  <Phase>  (173) 
2.0

>  <SC_Patent>  (173) 
nan

>  <Synonyms>  (173) 
BI 853520 | BI-853520 | BI853520 | IFEBEMTINIB | IN-10018 | IN10018

>  <Withdrawn>  (173) 
nan

>  <Indications>  (173) 
nan

>  <Type>  (173) 
nan

>  <targets_id>  (173) 
nan

>  <Inchi>  (173) 
InChI=1S/C28H28F4N6O4/c1-37-9-7-16(8-10-37)34-24(39)17-11-22(41-3)20(12-19(17)29)35-27-33-13-18(28(30,31)32)25(36-27)42-21-6-4-5-15-14-38(2)26(40)23(15)21/h4-6,11-13,16H,7-10,14H2,1-3H3,(H,34,39)(H,33,35,36)

>  <stdInchikey>  (173) 
ULMMVBPTWVRPSI-UHFFFAOYSA-N

>  <csid>  (173) 
58951583

>  <Links>  (173) 
|http://www.chemspider.com/Chemical-Structure.58951583.html|https://www.ebi.ac.uk/chembldb/compound/inspect/CHEMBL3657311|https://pubchem.ncbi.nlm.nih.gov/compound/46207957|https://go.drugbank.com/drugs/DB17570|https://zinc15.docking.org/substances/ZINC000138456718|https://www.bindingdb.org/bind/chemsearch/marvin/MolStructure.jsp?monomerid=134067

>  <LinkName>  (173) 
|ChemSpider|ChEMBL|PubChem|DrugBank|ZINC|BindingDB

>  <lig_pdb_ID>  (173) 


>  <pdb_IDs>  (173) 


>  <indicationDB>  (173) 


>  <uniprotId>  (173) 


>  <indicationG2P>  (173) 


>  <MW>  (173) 
588.2

>  <HBA>  (173) 
8

>  <HBD>  (173) 
2

>  <NRB>  (173) 
7

>  <TPSA>  (173) 
108.9

>  <LogP>  (173) 
4.6

>  <RoF>  (173) 
1

>  <Melting point>  (173) 
nan

>  <Targets>  (173) 
nan

>  <Kinase families>  (173) 


>  <FDA_approved>  (173) 


$$$$
Ifidancitinib
     RDKit          2D

 29 32  0  0  0  0  0  0  0  0999 V2000
    2.6612    2.4778    0.0000 C   0  0  0  0  0  0  0  0  0  0  0  0
    1.4519    1.5905    0.0000 O   0  0  0  0  0  0  0  0  0  0  0  0
    0.0787    2.1941    0.0000 C   0  0  0  0  0  0  0  0  0  0  0  0
   -1.1307    1.3068    0.0000 C   0  0  0  0  0  0  0  0  0  0  0  0
   -2.5038    1.9104    0.0000 C   0  0  0  0  0  0  0  0  0  0  0  0
   -3.7132    1.0231    0.0000 N   0  0  0  0  0  0  0  0  0  0  0  0
   -3.5494   -0.4680    0.0000 C   0  0  0  0  0  0  0  0  0  0  0  0
   -4.7588   -1.3553    0.0000 N   0  0  0  0  0  0  0  0  0  0  0  0
   -4.5950   -2.8464    0.0000 C   0  0  0  0  0  0  0  0  0  0  0  0
   -3.2218   -3.4500    0.0000 C   0  0  0  0  0  0  0  0  0  0  0  0
   -3.0580   -4.9411    0.0000 C   0  0  0  0  0  0  0  0  0  0  0  0
   -2.0125   -2.5627    0.0000 C   0  0  0  0  0  0  0  0  0  0  0  0
   -0.6393   -3.1663    0.0000 N   0  0  0  0  0  0  0  0  0  0  0  0
    0.5701   -2.2790    0.0000 C   0  0  0  0  0  0  0  0  0  0  0  0
    0.4063   -0.7879    0.0000 C   0  0  0  0  0  0  0  0  0  0  0  0
    1.6157    0.0994    0.0000 C   0  0  0  0  0  0  0  0  0  0  0  0
    2.9888   -0.5042    0.0000 C   0  0  0  0  0  0  0  0  0  0  0  0
    4.3563    0.1123    0.0000 O   0  0  0  0  0  0  0  0  0  0  0  0
    5.3652   -0.9977    0.0000 C   0  0  0  0  0  0  0  0  0  0  0  0
    6.8562   -0.8339    0.0000 O   0  0  0  0  0  0  0  0  0  0  0  0
    4.6213   -2.3002    0.0000 N   0  0  0  0  0  0  0  0  0  0  0  0
    3.1526   -1.9953    0.0000 C   0  0  0  0  0  0  0  0  0  0  0  0
    1.9433   -2.8826    0.0000 C   0  0  0  0  0  0  0  0  0  0  0  0
   -2.1762   -1.0716    0.0000 N   0  0  0  0  0  0  0  0  0  0  0  0
   -2.6676    3.4015    0.0000 C   0  0  0  0  0  0  0  0  0  0  0  0
   -1.4583    4.2888    0.0000 C   0  0  0  0  0  0  0  0  0  0  0  0
   -1.6221    5.7799    0.0000 C   0  0  0  0  0  0  0  0  0  0  0  0
   -0.0851    3.6852    0.0000 C   0  0  0  0  0  0  0  0  0  0  0  0
    1.1243    4.5725    0.0000 F   0  0  0  0  0  0  0  0  0  0  0  0
  1  2  1  0
  2  3  1  0
  3  4  2  0
  4  5  1  0
  5  6  1  0
  6  7  1  0
  7  8  2  0
  8  9  1  0
  9 10  2  0
 10 11  1  0
 10 12  1  0
 12 13  1  0
 13 14  1  0
 14 15  2  0
 15 16  1  0
 16 17  2  0
 17 18  1  0
 18 19  1  0
 19 20  2  0
 19 21  1  0
 21 22  1  0
 22 23  2  0
 12 24  2  0
  5 25  2  0
 25 26  1  0
 26 27  1  0
 26 28  2  0
 28 29  1  0
 28  3  1  0
 24  7  1  0
 23 14  1  0
 22 17  1  0
M  END
>  <BrandName>  (174) 


>  <Applicants>  (174) 
Rigel Pharmaceuticals

>  <CHEMBL_ID>  (174) 
CHEMBL4594441

>  <Canonical_Smiles>  (174) 
COc1cc(Nc2ncc(C)c(Nc3ccc4oc(=O)[nH]c4c3)n2)cc(C)c1F

>  <Chirality>  (174) 
Achiral Molecule

>  <First_Approval>  (174) 
nan

>  <Phase>  (174) 
2.0

>  <SC_Patent>  (174) 
nan

>  <Synonyms>  (174) 
A-301 | ATI-502 | IFIDANCITINIB

>  <Withdrawn>  (174) 
nan

>  <Indications>  (174) 
nan

>  <Type>  (174) 
nan

>  <targets_id>  (174) 
nan

>  <Inchi>  (174) 
InChI=1S/C20H18FN5O3/c1-10-6-13(8-16(28-3)17(10)21)24-19-22-9-11(2)18(26-19)23-12-4-5-15-14(7-12)25-20(27)29-15/h4-9H,1-3H3,(H,25,27)(H2,22,23,24,26)

>  <stdInchikey>  (174) 
OYFMQDVLFYKOPZ-UHFFFAOYSA-N

>  <csid>  (174) 
88297766

>  <Links>  (174) 
|http://www.chemspider.com/Chemical-Structure.88297766.html|https://www.ebi.ac.uk/chembldb/compound/inspect/CHEMBL4594441|https://pubchem.ncbi.nlm.nih.gov/compound/46851625|https://go.drugbank.com/drugs/DB16191|https://www.guidetopharmacology.org/GRAC/LigandDisplayForward?10638|https://precision.fda.gov/uniisearch/srs/unii/R105E71J13

>  <LinkName>  (174) 
|ChemSpider|ChEMBL|PubChem|DrugBank|Guide to Pharmacology|FDA SRS

>  <lig_pdb_ID>  (174) 


>  <pdb_IDs>  (174) 


>  <indicationDB>  (174) 


>  <uniprotId>  (174) 


>  <indicationG2P>  (174) 
None

>  <MW>  (174) 
395.1

>  <HBA>  (174) 
7

>  <HBD>  (174) 
3

>  <NRB>  (174) 
5

>  <TPSA>  (174) 
105.1

>  <LogP>  (174) 
4.2

>  <RoF>  (174) 
0

>  <Melting point>  (174) 
nan

>  <Targets>  (174) 
nan

>  <Kinase families>  (174) 


>  <FDA_approved>  (174) 


$$$$
Asnuciclib
     RDKit          2D

 26 28  0  0  0  0  0  0  0  0999 V2000
   -7.4098   -1.4215    0.0000 C   0  0  0  0  0  0  0  0  0  0  0  0
   -6.2351   -2.3542    0.0000 N   0  0  0  0  0  0  0  0  0  0  0  0
   -4.8399   -1.8032    0.0000 C   0  0  0  0  0  0  0  0  0  0  0  0
   -3.5741   -2.6080    0.0000 N   0  0  0  0  0  0  0  0  0  0  0  0
   -2.4175   -1.6528    0.0000 C   0  0  0  0  0  0  0  0  0  0  0  0
   -0.9650   -2.0271    0.0000 C   0  0  0  0  0  0  0  0  0  0  0  0
   -2.9686   -0.2577    0.0000 C   0  0  0  0  0  0  0  0  0  0  0  0
   -2.1638    1.0081    0.0000 C   0  0  0  0  0  0  0  0  0  0  0  0
   -0.6651    0.9440    0.0000 N   0  0  0  0  0  0  0  0  0  0  0  0
    0.1397    2.2099    0.0000 C   0  0  0  0  0  0  0  0  0  0  0  0
    1.6383    2.1458    0.0000 N   0  0  0  0  0  0  0  0  0  0  0  0
    2.3321    0.8159    0.0000 C   0  0  0  0  0  0  0  0  0  0  0  0
    1.5273   -0.4499    0.0000 C   0  0  0  0  0  0  0  0  0  0  0  0
    2.2212   -1.7798    0.0000 C   0  0  0  0  0  0  0  0  0  0  0  0
    3.7198   -1.8439    0.0000 C   0  0  0  0  0  0  0  0  0  0  0  0
    4.5246   -0.5780    0.0000 C   0  0  0  0  0  0  0  0  0  0  0  0
    6.0232   -0.6421    0.0000 S   0  0  0  0  0  0  0  0  0  0  0  0
    7.5219   -0.7062    0.0000 N   0  0  0  0  0  0  0  0  0  0  0  0
    5.9592   -2.1407    0.0000 O   0  0  0  0  0  0  0  0  0  0  0  0
    6.0873    0.8565    0.0000 O   0  0  0  0  0  0  0  0  0  0  0  0
    3.8308    0.7519    0.0000 C   0  0  0  0  0  0  0  0  0  0  0  0
   -0.5542    3.5398    0.0000 N   0  0  0  0  0  0  0  0  0  0  0  0
   -2.0528    3.6038    0.0000 C   0  0  0  0  0  0  0  0  0  0  0  0
   -2.8576    2.3380    0.0000 C   0  0  0  0  0  0  0  0  0  0  0  0
   -4.3562    2.4021    0.0000 F   0  0  0  0  0  0  0  0  0  0  0  0
   -4.4657   -0.3506    0.0000 S   0  0  0  0  0  0  0  0  0  0  0  0
  1  2  1  0
  2  3  1  0
  3  4  2  0
  4  5  1  0
  5  6  1  0
  5  7  2  0
  7  8  1  0
  8  9  2  0
  9 10  1  0
 10 11  1  0
 11 12  1  0
 12 13  2  0
 13 14  1  0
 14 15  2  0
 15 16  1  0
 16 17  1  0
 17 18  1  0
 17 19  2  0
 17 20  2  0
 16 21  2  0
 10 22  2  0
 22 23  1  0
 23 24  2  0
 24 25  1  0
  7 26  1  0
 26  3  1  0
 24  8  1  0
 21 12  1  0
M  END
>  <BrandName>  (175) 


>  <Applicants>  (175) 
('',)

>  <CHEMBL_ID>  (175) 
CHEMBL2347597

>  <Canonical_Smiles>  (175) 
CNc1nc(C)c(-c2nc(Nc3cccc(S(N)(=O)=O)c3)ncc2F)s1

>  <Chirality>  (175) 
Achiral Molecule

>  <First_Approval>  (175) 
nan

>  <Phase>  (175) 
2.0

>  <SC_Patent>  (175) 
nan

>  <Synonyms>  (175) 
ASNUCICLIB | CDKI-73 | CDKI73

>  <Withdrawn>  (175) 
nan

>  <Indications>  (175) 
nan

>  <Type>  (175) 
nan

>  <targets_id>  (175) 
nan

>  <Inchi>  (175) 
InChI=1S/C15H15FN6O2S2/c1-8-13(25-15(18-2)20-8)12-11(16)7-19-14(22-12)21-9-4-3-5-10(6-9)26(17,23)24/h3-7H,1-2H3,(H,18,20)(H2,17,23,24)(H,19,21,22)

>  <stdInchikey>  (175) 
GAIOPWBQKZMUNO-UHFFFAOYSA-N

>  <csid>  (175) 
29407664

>  <Links>  (175) 
|http://www.chemspider.com/Chemical-Structure.29407664.html|https://www.ebi.ac.uk/chembldb/compound/inspect/CHEMBL2347597|https://pubchem.ncbi.nlm.nih.gov/compound/71561915|https://zinc15.docking.org/substances/ZINC000095605236|https://www.bindingdb.org/bind/chemsearch/marvin/MolStructure.jsp?monomerid=50431360

>  <LinkName>  (175) 
|ChemSpider|ChEMBL|PubChem|ZINC|BindingDB

>  <lig_pdb_ID>  (175) 


>  <pdb_IDs>  (175) 


>  <indicationDB>  (175) 


>  <uniprotId>  (175) 


>  <indicationG2P>  (175) 


>  <MW>  (175) 
394.1

>  <HBA>  (175) 
8

>  <HBD>  (175) 
3

>  <NRB>  (175) 
5

>  <TPSA>  (175) 
122.9

>  <LogP>  (175) 
2.5

>  <RoF>  (175) 
0

>  <Melting point>  (175) 
nan

>  <Targets>  (175) 
nan

>  <Kinase families>  (175) 


>  <FDA_approved>  (175) 


$$$$
Onatasertib
     RDKit          2D

 29 32  0  0  0  0  0  0  0  0999 V2000
   -1.3049    5.8324    0.0000 C   0  0  0  0  0  0  0  0  0  0  0  0
   -2.6575    5.1839    0.0000 O   0  0  0  0  0  0  0  0  0  0  0  0
   -2.7721    3.6883    0.0000 C   0  0  0  0  0  0  0  0  0  0  0  0
   -1.5342    2.8411    0.0000 C   0  0  0  0  0  0  0  0  0  0  0  0
   -1.6489    1.3455    0.0000 C   0  0  0  0  0  0  0  0  0  0  0  0
   -3.0015    0.6970    0.0000 C   0  0  0  0  0  0  0  0  0  0  0  0
   -3.1162   -0.7986    0.0000 N   0  0  0  0  0  0  0  0  0  0  0  0
   -4.4688   -1.4470    0.0000 C   0  0  0  0  0  0  0  0  0  0  0  0
   -5.7067   -0.5999    0.0000 O   0  0  0  0  0  0  0  0  0  0  0  0
   -4.5835   -2.9427    0.0000 C   0  0  0  0  0  0  0  0  0  0  0  0
   -3.3456   -3.7898    0.0000 N   0  0  0  0  0  0  0  0  0  0  0  0
   -1.9930   -3.1413    0.0000 C   0  0  0  0  0  0  0  0  0  0  0  0
   -0.7551   -3.9884    0.0000 N   0  0  0  0  0  0  0  0  0  0  0  0
    0.5975   -3.3399    0.0000 C   0  0  0  0  0  0  0  0  0  0  0  0
    0.7122   -1.8443    0.0000 C   0  0  0  0  0  0  0  0  0  0  0  0
    2.0647   -1.1958    0.0000 C   0  0  0  0  0  0  0  0  0  0  0  0
    3.3026   -2.0430    0.0000 C   0  0  0  0  0  0  0  0  0  0  0  0
    4.6552   -1.3945    0.0000 C   0  0  0  0  0  0  0  0  0  0  0  0
    4.7699    0.1011    0.0000 C   0  0  0  0  0  0  0  0  0  0  0  0
    6.1225    0.7496    0.0000 C   0  0  0  0  0  0  0  0  0  0  0  0
    5.4740    2.1022    0.0000 C   0  0  0  0  0  0  0  0  0  0  0  0
    6.7710   -0.6030    0.0000 C   0  0  0  0  0  0  0  0  0  0  0  0
    7.4751    1.3981    0.0000 O   0  0  0  0  0  0  0  0  0  0  0  0
    3.5320    0.9482    0.0000 N   0  0  0  0  0  0  0  0  0  0  0  0
    2.1794    0.2998    0.0000 C   0  0  0  0  0  0  0  0  0  0  0  0
   -0.5257   -0.9972    0.0000 N   0  0  0  0  0  0  0  0  0  0  0  0
   -1.8783   -1.6457    0.0000 C   0  0  0  0  0  0  0  0  0  0  0  0
   -4.2394    1.5442    0.0000 C   0  0  0  0  0  0  0  0  0  0  0  0
   -4.1247    3.0398    0.0000 C   0  0  0  0  0  0  0  0  0  0  0  0
  1  2  1  0
  3  2  1  1
  3  4  1  0
  4  5  1  0
  5  6  1  0
  6  7  1  6
  7  8  1  0
  8  9  2  0
  8 10  1  0
 10 11  1  0
 11 12  1  0
 12 13  2  0
 13 14  1  0
 14 15  2  0
 15 16  1  0
 16 17  2  0
 17 18  1  0
 18 19  2  0
 19 20  1  0
 20 21  1  0
 20 22  1  0
 20 23  1  0
 19 24  1  0
 24 25  2  0
 15 26  1  0
 26 27  2  0
  6 28  1  0
 28 29  1  0
 29  3  1  0
 27  7  1  0
 27 12  1  0
 25 16  1  0
M  END
>  <BrandName>  (176) 


>  <Applicants>  (176) 
Celgene

>  <CHEMBL_ID>  (176) 
CHEMBL3586404

>  <Canonical_Smiles>  (176) 
CO[C@H]1CC[C@H](N2C(=O)CNc3ncc(-c4ccc(C(C)(C)O)nc4)nc32)CC1

>  <Chirality>  (176) 
Single Stereoisomer

>  <First_Approval>  (176) 
nan

>  <Phase>  (176) 
2.0

>  <SC_Patent>  (176) 
nan

>  <Synonyms>  (176) 
ATG-008 | ATG008 | CC-223 | CC223 | ONATASERTIB

>  <Withdrawn>  (176) 
nan

>  <Indications>  (176) 
nan

>  <Type>  (176) 
nan

>  <targets_id>  (176) 
nan

>  <Inchi>  (176) 
InChI=1S/C21H27N5O3/c1-21(2,28)17-9-4-13(10-22-17)16-11-23-19-20(25-16)26(18(27)12-24-19)14-5-7-15(29-3)8-6-14/h4,9-11,14-15,28H,5-8,12H2,1-3H3,(H,23,24)/t14-,15-

>  <stdInchikey>  (176) 
UFKLYTOEMRFKAD-SHTZXODSSA-N

>  <csid>  (176) 
35308326

>  <Links>  (176) 
|http://www.chemspider.com/Chemical-Structure.35308326.html|https://www.ebi.ac.uk/chembldb/compound/inspect/CHEMBL3586404|https://go.drugbank.com/drugs/DB12570|https://zinc15.docking.org/substances/ZINC000114617828|https://precision.fda.gov/uniisearch/srs/unii/I8RA3543SY|https://www.bindingdb.org/bind/chemsearch/marvin/MolStructure.jsp?monomerid=50092783

>  <LinkName>  (176) 
|ChemSpider|ChEMBL|DrugBank|ZINC|FDA SRS|BindingDB

>  <lig_pdb_ID>  (176) 


>  <pdb_IDs>  (176) 


>  <indicationDB>  (176) 


>  <uniprotId>  (176) 


>  <indicationG2P>  (176) 


>  <MW>  (176) 
397.2

>  <HBA>  (176) 
7

>  <HBD>  (176) 
2

>  <NRB>  (176) 
4

>  <TPSA>  (176) 
100.5

>  <LogP>  (176) 
2.5

>  <RoF>  (176) 
0

>  <Melting point>  (176) 
nan

>  <Targets>  (176) 
nan

>  <Kinase families>  (176) 


>  <FDA_approved>  (176) 


$$$$
Silmitasertib
     RDKit          2D

 25 28  0  0  0  0  0  0  0  0999 V2000
   -3.3592    2.7010    0.0000 C   0  0  0  0  0  0  0  0  0  0  0  0
   -2.5279    1.4524    0.0000 C   0  0  0  0  0  0  0  0  0  0  0  0
   -3.1934    0.1082    0.0000 C   0  0  0  0  0  0  0  0  0  0  0  0
   -4.6904    0.0124    0.0000 C   0  0  0  0  0  0  0  0  0  0  0  0
   -5.5217    1.2610    0.0000 C   0  0  0  0  0  0  0  0  0  0  0  0
   -4.8562    2.6052    0.0000 C   0  0  0  0  0  0  0  0  0  0  0  0
   -7.0187    1.1652    0.0000 Cl  0  0  0  0  0  0  0  0  0  0  0  0
   -2.3620   -1.1403    0.0000 N   0  0  0  0  0  0  0  0  0  0  0  0
   -0.8651   -1.0446    0.0000 C   0  0  0  0  0  0  0  0  0  0  0  0
   -0.0337   -2.2931    0.0000 C   0  0  0  0  0  0  0  0  0  0  0  0
   -0.6993   -3.6374    0.0000 C   0  0  0  0  0  0  0  0  0  0  0  0
    0.1321   -4.8859    0.0000 C   0  0  0  0  0  0  0  0  0  0  0  0
    1.6290   -4.7902    0.0000 N   0  0  0  0  0  0  0  0  0  0  0  0
    2.2946   -3.4459    0.0000 C   0  0  0  0  0  0  0  0  0  0  0  0
    1.4632   -2.1974    0.0000 C   0  0  0  0  0  0  0  0  0  0  0  0
    2.1288   -0.8531    0.0000 C   0  0  0  0  0  0  0  0  0  0  0  0
    3.6257   -0.7574    0.0000 C   0  0  0  0  0  0  0  0  0  0  0  0
    4.2913    0.5869    0.0000 C   0  0  0  0  0  0  0  0  0  0  0  0
    3.4599    1.8354    0.0000 C   0  0  0  0  0  0  0  0  0  0  0  0
    1.9630    1.7396    0.0000 C   0  0  0  0  0  0  0  0  0  0  0  0
    1.2974    0.3954    0.0000 C   0  0  0  0  0  0  0  0  0  0  0  0
   -0.1995    0.2996    0.0000 N   0  0  0  0  0  0  0  0  0  0  0  0
    4.1255    3.1796    0.0000 C   0  0  0  0  0  0  0  0  0  0  0  0
    3.2941    4.4282    0.0000 O   0  0  0  0  0  0  0  0  0  0  0  0
    5.6224    3.2754    0.0000 O   0  0  0  0  0  0  0  0  0  0  0  0
  1  2  2  0
  2  3  1  0
  3  4  2  0
  4  5  1  0
  5  6  2  0
  5  7  1  0
  3  8  1  0
  8  9  1  0
  9 10  1  0
 10 11  2  0
 11 12  1  0
 12 13  2  0
 13 14  1  0
 14 15  2  0
 15 16  1  0
 16 17  2  0
 17 18  1  0
 18 19  2  0
 19 20  1  0
 20 21  2  0
 21 22  1  0
 19 23  1  0
 23 24  2  0
 23 25  1  0
  6  1  1  0
 22  9  2  0
 15 10  1  0
 21 16  1  0
M  END
>  <BrandName>  (177) 


>  <Applicants>  (177) 
Senhwa Biosciences

>  <CHEMBL_ID>  (177) 
CHEMBL1230165

>  <Canonical_Smiles>  (177) 
c1cc(cc(c1)Cl)Nc2c3ccncc3c4ccc(cc4n2)C(=O)O

>  <Chirality>  (177) 
Achiral Molecule

>  <First_Approval>  (177) 
nan

>  <Phase>  (177) 
2.0

>  <SC_Patent>  (177) 
nan

>  <Synonyms>  (177) 
CX 4945 | CX-4945 | CX-4945 FREE ACID | CX4945 | SILMITASERTIB

>  <Withdrawn>  (177) 
nan

>  <Indications>  (177) 
nan

>  <Type>  (177) 
1

>  <targets_id>  (177) 
P68400|P19784

>  <Inchi>  (177) 
InChI=1S/C19H12ClN3O2/c20-12-2-1-3-13(9-12)22-18-15-6-7-21-10-16(15)14-5-4-11(19(24)25)8-17(14)23-18/h1-10H,(H,22,23)(H,24,25)

>  <stdInchikey>  (177) 
MUOKSQABCJCOPU-UHFFFAOYSA-N

>  <csid>  (177) 
25057795

>  <Links>  (177) 
|http://www.chemspider.com/Chemical-Structure.25057795.html|https://www.ebi.ac.uk/chembldb/compound/inspect/CHEMBL1230165|https://pubchem.ncbi.nlm.nih.gov/compound/24748573|https://go.drugbank.com/drugs/DB15408|https://www.rcsb.org/ligand/3NG|https://www.ebi.ac.uk/pdbe-srv/pdbechem/chemicalCompound/show/3NG|https://www.guidetopharmacology.org/GRAC/LigandDisplayForward?8126|https://zinc15.docking.org/substances/ZINC000058638454|https://precision.fda.gov/uniisearch/srs/unii/C6RWP0N0L2|https://www.bindingdb.org/bind/chemsearch/marvin/MolStructure.jsp?monomerid=50335638

>  <LinkName>  (177) 
|ChemSpider|ChEMBL|PubChem|DrugBank|RCSB|PDBe|Guide to Pharmacology|ZINC|FDA SRS|BindingDB

>  <lig_pdb_ID>  (177) 
3NG

>  <pdb_IDs>  (177) 
3nga 3pe1 5o11 6fyl 6fyp 6fyv 6hmb 6isj 6k3l 6khd 6khe 6khf 6p5s 7z1f 7z1g 7z5n 8qbu 8w4q

>  <indicationDB>  (177) 


>  <uniprotId>  (177) 


>  <indicationG2P>  (177) 
None

>  <MW>  (177) 
349.1

>  <HBA>  (177) 
4

>  <HBD>  (177) 
2

>  <NRB>  (177) 
3

>  <TPSA>  (177) 
75.1

>  <LogP>  (177) 
4.9

>  <RoF>  (177) 
0

>  <Melting point>  (177) 
nan

>  <Targets>  (177) 
CSNK2A1; CSNK2A2

>  <Kinase families>  (177) 
Other

>  <FDA_approved>  (177) 


$$$$
Bentamapimod
     RDKit          2D

 33 37  0  0  0  0  0  0  0  0999 V2000
   -8.1455    0.4356    0.0000 N   0  0  0  0  0  0  0  0  0  0  0  0
   -6.6456    0.4177    0.0000 C   0  0  0  0  0  0  0  0  0  0  0  0
   -5.1457    0.3999    0.0000 C   0  0  0  0  0  0  0  0  0  0  0  0
   -4.4112   -0.9079    0.0000 C   0  0  0  0  0  0  0  0  0  0  0  0
   -5.0376   -2.2709    0.0000 N   0  0  0  0  0  0  0  0  0  0  0  0
   -3.9349   -3.2878    0.0000 C   0  0  0  0  0  0  0  0  0  0  0  0
   -3.9527   -4.7877    0.0000 C   0  0  0  0  0  0  0  0  0  0  0  0
   -2.6626   -5.5531    0.0000 C   0  0  0  0  0  0  0  0  0  0  0  0
   -1.3548   -4.8186    0.0000 C   0  0  0  0  0  0  0  0  0  0  0  0
   -1.3370   -3.3187    0.0000 C   0  0  0  0  0  0  0  0  0  0  0  0
   -2.6270   -2.5533    0.0000 C   0  0  0  0  0  0  0  0  0  0  0  0
   -2.9214   -1.0825    0.0000 S   0  0  0  0  0  0  0  0  0  0  0  0
   -4.3803    1.6899    0.0000 C   0  0  0  0  0  0  0  0  0  0  0  0
   -2.8804    1.6721    0.0000 N   0  0  0  0  0  0  0  0  0  0  0  0
   -2.1151    2.9621    0.0000 C   0  0  0  0  0  0  0  0  0  0  0  0
   -0.6152    2.9443    0.0000 O   0  0  0  0  0  0  0  0  0  0  0  0
    0.1193    1.6365    0.0000 C   0  0  0  0  0  0  0  0  0  0  0  0
    1.6192    1.6186    0.0000 C   0  0  0  0  0  0  0  0  0  0  0  0
    2.3538    0.3108    0.0000 C   0  0  0  0  0  0  0  0  0  0  0  0
    3.8536    0.2929    0.0000 C   0  0  0  0  0  0  0  0  0  0  0  0
    4.6190    1.5830    0.0000 C   0  0  0  0  0  0  0  0  0  0  0  0
    3.8845    2.8908    0.0000 C   0  0  0  0  0  0  0  0  0  0  0  0
    2.3846    2.9087    0.0000 C   0  0  0  0  0  0  0  0  0  0  0  0
    6.1189    1.5651    0.0000 C   0  0  0  0  0  0  0  0  0  0  0  0
    6.8534    0.2573    0.0000 N   0  0  0  0  0  0  0  0  0  0  0  0
    6.0880   -1.0327    0.0000 C   0  0  0  0  0  0  0  0  0  0  0  0
    6.8226   -2.3406    0.0000 C   0  0  0  0  0  0  0  0  0  0  0  0
    8.3224   -2.3584    0.0000 O   0  0  0  0  0  0  0  0  0  0  0  0
    9.0878   -1.0684    0.0000 C   0  0  0  0  0  0  0  0  0  0  0  0
    8.3533    0.2395    0.0000 C   0  0  0  0  0  0  0  0  0  0  0  0
   -2.8496    4.2700    0.0000 N   0  0  0  0  0  0  0  0  0  0  0  0
   -4.3495    4.2878    0.0000 C   0  0  0  0  0  0  0  0  0  0  0  0
   -5.1148    2.9978    0.0000 C   0  0  0  0  0  0  0  0  0  0  0  0
  1  2  3  0
  2  3  1  0
  3  4  1  0
  4  5  2  0
  5  6  1  0
  6  7  2  0
  7  8  1  0
  8  9  2  0
  9 10  1  0
 10 11  2  0
 11 12  1  0
  3 13  1  0
 13 14  2  0
 14 15  1  0
 15 16  1  0
 16 17  1  0
 17 18  1  0
 18 19  2  0
 19 20  1  0
 20 21  2  0
 21 22  1  0
 22 23  2  0
 21 24  1  0
 24 25  1  0
 25 26  1  0
 26 27  1  0
 27 28  1  0
 28 29  1  0
 29 30  1  0
 15 31  2  0
 31 32  1  0
 32 33  2  0
 12  4  1  0
 11  6  1  0
 23 18  1  0
 30 25  1  0
 33 13  1  0
M  END
>  <BrandName>  (178) 


>  <Applicants>  (178) 
PregLem

>  <CHEMBL_ID>  (178) 
CHEMBL3545213

>  <Canonical_Smiles>  (178) 
N#CC(c1nc2ccccc2s1)c5nc(OCc3ccc(cc3)CN4CCOCC4)ncc5

>  <Chirality>  (178) 
Racemic Mixture

>  <First_Approval>  (178) 
nan

>  <Phase>  (178) 
2.0

>  <SC_Patent>  (178) 
nan

>  <Synonyms>  (178) 
AS-602801 | AS602801 | BENTAMAPIMOD | PGL-5001 | PGL5001

>  <Withdrawn>  (178) 
nan

>  <Indications>  (178) 
nan

>  <Type>  (178) 
nan

>  <targets_id>  (178) 
P45983|P45984

>  <Inchi>  (178) 
InChI=1S/C25H23N5O2S/c26-15-20(24-28-22-3-1-2-4-23(22)33-24)21-9-10-27-25(29-21)32-17-19-7-5-18(6-8-19)16-30-11-13-31-14-12-30/h1-10,20H,11-14,16-17H2

>  <stdInchikey>  (178) 
XCPPIJCBCWUBNT-UHFFFAOYSA-N

>  <csid>  (178) 
8370750

>  <Links>  (178) 
|http://www.chemspider.com/Chemical-Structure.8370750.html|https://www.ebi.ac.uk/chembldb/compound/inspect/CHEMBL3545213|https://pubchem.ncbi.nlm.nih.gov/compound/10195250|https://go.drugbank.com/drugs/DB16851|https://www.guidetopharmacology.org/GRAC/LigandDisplayForward?9926|https://precision.fda.gov/uniisearch/srs/unii/TT3L4B4U0N

>  <LinkName>  (178) 
|ChemSpider|ChEMBL|PubChem|DrugBank|Guide to Pharmacology|FDA SRS

>  <lig_pdb_ID>  (178) 


>  <pdb_IDs>  (178) 


>  <indicationDB>  (178) 


>  <uniprotId>  (178) 


>  <indicationG2P>  (178) 
None

>  <MW>  (178) 
457.2

>  <HBA>  (178) 
8

>  <HBD>  (178) 
0

>  <NRB>  (178) 
7

>  <TPSA>  (178) 
84.2

>  <LogP>  (178) 
4.2

>  <RoF>  (178) 
0

>  <Melting point>  (178) 
nan

>  <Targets>  (178) 
MAPK8; MAPK9

>  <Kinase families>  (178) 
CMGC

>  <FDA_approved>  (178) 


$$$$
Adrixetinib
     RDKit          2D

 38 41  0  0  0  0  0  0  0  0999 V2000
  -10.2686    4.4931    0.0000 C   0  0  0  0  0  0  0  0  0  0  0  0
   -8.9507    3.7767    0.0000 C   0  0  0  0  0  0  0  0  0  0  0  0
   -8.9121    2.2772    0.0000 C   0  0  0  0  0  0  0  0  0  0  0  0
   -7.5941    1.5609    0.0000 N   0  0  0  0  0  0  0  0  0  0  0  0
   -7.3990    0.0737    0.0000 C   0  0  0  0  0  0  0  0  0  0  0  0
   -5.9242   -0.2003    0.0000 C   0  0  0  0  0  0  0  0  0  0  0  0
   -5.2791   -1.5545    0.0000 O   0  0  0  0  0  0  0  0  0  0  0  0
   -6.1292   -2.7903    0.0000 C   0  0  0  0  0  0  0  0  0  0  0  0
   -5.4841   -4.1445    0.0000 C   0  0  0  0  0  0  0  0  0  0  0  0
   -4.8389   -5.4986    0.0000 F   0  0  0  0  0  0  0  0  0  0  0  0
   -6.8382   -4.7897    0.0000 F   0  0  0  0  0  0  0  0  0  0  0  0
   -4.1299   -3.4993    0.0000 F   0  0  0  0  0  0  0  0  0  0  0  0
   -5.2079    1.1176    0.0000 C   0  0  0  0  0  0  0  0  0  0  0  0
   -3.7207    1.3127    0.0000 C   0  0  0  0  0  0  0  0  0  0  0  0
   -3.1460    2.6983    0.0000 O   0  0  0  0  0  0  0  0  0  0  0  0
   -2.8081    0.1223    0.0000 N   0  0  0  0  0  0  0  0  0  0  0  0
   -1.3208    0.3174    0.0000 C   0  0  0  0  0  0  0  0  0  0  0  0
   -0.4082   -0.8730    0.0000 C   0  0  0  0  0  0  0  0  0  0  0  0
    1.0791   -0.6779    0.0000 C   0  0  0  0  0  0  0  0  0  0  0  0
    1.6537    0.7077    0.0000 C   0  0  0  0  0  0  0  0  0  0  0  0
    3.1410    0.9028    0.0000 O   0  0  0  0  0  0  0  0  0  0  0  0
    4.0536   -0.2876    0.0000 C   0  0  0  0  0  0  0  0  0  0  0  0
    3.4789   -1.6732    0.0000 C   0  0  0  0  0  0  0  0  0  0  0  0
    4.3916   -2.8636    0.0000 C   0  0  0  0  0  0  0  0  0  0  0  0
    5.8788   -2.6685    0.0000 N   0  0  0  0  0  0  0  0  0  0  0  0
    6.4534   -1.2829    0.0000 C   0  0  0  0  0  0  0  0  0  0  0  0
    7.9407   -1.0878    0.0000 C   0  0  0  0  0  0  0  0  0  0  0  0
    8.5153    0.2978    0.0000 C   0  0  0  0  0  0  0  0  0  0  0  0
   10.0026    0.4929    0.0000 O   0  0  0  0  0  0  0  0  0  0  0  0
   10.9152   -0.6975    0.0000 C   0  0  0  0  0  0  0  0  0  0  0  0
    7.6027    1.4882    0.0000 C   0  0  0  0  0  0  0  0  0  0  0  0
    8.1774    2.8738    0.0000 O   0  0  0  0  0  0  0  0  0  0  0  0
    9.6646    3.0689    0.0000 C   0  0  0  0  0  0  0  0  0  0  0  0
    6.1155    1.2931    0.0000 C   0  0  0  0  0  0  0  0  0  0  0  0
    5.5408   -0.0925    0.0000 C   0  0  0  0  0  0  0  0  0  0  0  0
    0.7411    1.8981    0.0000 C   0  0  0  0  0  0  0  0  0  0  0  0
   -0.7462    1.7030    0.0000 N   0  0  0  0  0  0  0  0  0  0  0  0
   -6.2400    2.2061    0.0000 N   0  0  0  0  0  0  0  0  0  0  0  0
  1  2  1  0
  2  3  1  0
  3  4  1  0
  4  5  1  0
  5  6  2  0
  6  7  1  0
  7  8  1  0
  8  9  1  0
  9 10  1  0
  9 11  1  0
  9 12  1  0
  6 13  1  0
 13 14  1  0
 14 15  2  0
 14 16  1  0
 16 17  1  0
 17 18  2  0
 18 19  1  0
 19 20  2  0
 20 21  1  0
 21 22  1  0
 22 23  2  0
 23 24  1  0
 24 25  2  0
 25 26  1  0
 26 27  2  0
 27 28  1  0
 28 29  1  0
 29 30  1  0
 28 31  2  0
 31 32  1  0
 32 33  1  0
 31 34  1  0
 34 35  2  0
 20 36  1  0
 36 37  2  0
 13 38  2  0
 38  4  1  0
 37 17  1  0
 35 22  1  0
 35 26  1  0
M  END
>  <BrandName>  (179) 


>  <Applicants>  (179) 
('Qurient Therapeutics',)

>  <CHEMBL_ID>  (179) 
CHEMBL5314452

>  <Canonical_Smiles>  (179) 
CCCn1cc(OCC(F)(F)F)c(C(=O)Nc2ccc(Oc3ccnc4cc(OC)c(OC)cc34)cn2)n1

>  <Chirality>  (179) 
Achiral Molecule

>  <First_Approval>  (179) 
nan

>  <Phase>  (179) 
2.0

>  <SC_Patent>  (179) 
nan

>  <Synonyms>  (179) 
ADRIXETINIB

>  <Withdrawn>  (179) 
nan

>  <Indications>  (179) 
nan

>  <Type>  (179) 
nan

>  <targets_id>  (179) 
nan

>  <Inchi>  (179) 
InChI=1S/C25H24F3N5O5/c1-4-9-33-13-21(37-14-25(26,27)28)23(32-33)24(34)31-22-6-5-15(12-30-22)38-18-7-8-29-17-11-20(36-3)19(35-2)10-16(17)18/h5-8,10-13H,4,9,14H2,1-3H3,(H,30,31,34)

>  <stdInchikey>  (179) 
BWUUJXXFCSYLFW-UHFFFAOYSA-N

>  <csid>  (179) 
123248647

>  <Links>  (179) 
|http://www.chemspider.com/Chemical-Structure.123248647.html|https://www.ebi.ac.uk/chembldb/compound/inspect/CHEMBL5314452|https://pubchem.ncbi.nlm.nih.gov/compound/156440741

>  <LinkName>  (179) 
|ChemSpider|ChEMBL|PubChem

>  <lig_pdb_ID>  (179) 


>  <pdb_IDs>  (179) 


>  <indicationDB>  (179) 


>  <uniprotId>  (179) 


>  <indicationG2P>  (179) 


>  <MW>  (179) 
531.2

>  <HBA>  (179) 
9

>  <HBD>  (179) 
1

>  <NRB>  (179) 
10

>  <TPSA>  (179) 
109.6

>  <LogP>  (179) 
5.2

>  <RoF>  (179) 
2

>  <Melting point>  (179) 
nan

>  <Targets>  (179) 
nan

>  <Kinase families>  (179) 


>  <FDA_approved>  (179) 


$$$$
Sapitinib
     RDKit          2D

 33 36  0  0  0  0  0  0  0  0999 V2000
    6.8433    1.9203    0.0000 C   0  0  0  0  0  0  0  0  0  0  0  0
    5.8865    3.0755    0.0000 N   0  0  0  0  0  0  0  0  0  0  0  0
    4.4077    2.8244    0.0000 C   0  0  0  0  0  0  0  0  0  0  0  0
    3.8856    1.4182    0.0000 O   0  0  0  0  0  0  0  0  0  0  0  0
    3.4508    3.9796    0.0000 C   0  0  0  0  0  0  0  0  0  0  0  0
    1.9720    3.7286    0.0000 N   0  0  0  0  0  0  0  0  0  0  0  0
    1.4500    2.3224    0.0000 C   0  0  0  0  0  0  0  0  0  0  0  0
   -0.0289    2.0713    0.0000 C   0  0  0  0  0  0  0  0  0  0  0  0
   -0.9857    3.2266    0.0000 C   0  0  0  0  0  0  0  0  0  0  0  0
   -0.4637    4.6328    0.0000 C   0  0  0  0  0  0  0  0  0  0  0  0
    1.0152    4.8838    0.0000 C   0  0  0  0  0  0  0  0  0  0  0  0
   -2.4645    2.9755    0.0000 O   0  0  0  0  0  0  0  0  0  0  0  0
   -2.9866    1.5693    0.0000 C   0  0  0  0  0  0  0  0  0  0  0  0
   -2.0297    0.4141    0.0000 C   0  0  0  0  0  0  0  0  0  0  0  0
   -2.5518   -0.9921    0.0000 C   0  0  0  0  0  0  0  0  0  0  0  0
   -4.0306   -1.2432    0.0000 C   0  0  0  0  0  0  0  0  0  0  0  0
   -4.9874   -0.0880    0.0000 C   0  0  0  0  0  0  0  0  0  0  0  0
   -4.4654    1.3183    0.0000 C   0  0  0  0  0  0  0  0  0  0  0  0
   -5.4222    2.4735    0.0000 O   0  0  0  0  0  0  0  0  0  0  0  0
   -4.9002    3.8797    0.0000 C   0  0  0  0  0  0  0  0  0  0  0  0
   -4.5526   -2.6494    0.0000 N   0  0  0  0  0  0  0  0  0  0  0  0
   -3.5958   -3.8046    0.0000 C   0  0  0  0  0  0  0  0  0  0  0  0
   -2.1170   -3.5536    0.0000 N   0  0  0  0  0  0  0  0  0  0  0  0
   -1.5949   -2.1473    0.0000 C   0  0  0  0  0  0  0  0  0  0  0  0
   -0.1161   -1.8963    0.0000 N   0  0  0  0  0  0  0  0  0  0  0  0
    0.8407   -3.0515    0.0000 C   0  0  0  0  0  0  0  0  0  0  0  0
    0.3187   -4.4578    0.0000 C   0  0  0  0  0  0  0  0  0  0  0  0
    1.2755   -5.6130    0.0000 C   0  0  0  0  0  0  0  0  0  0  0  0
    2.7544   -5.3619    0.0000 C   0  0  0  0  0  0  0  0  0  0  0  0
    3.2764   -3.9557    0.0000 C   0  0  0  0  0  0  0  0  0  0  0  0
    2.3196   -2.8005    0.0000 C   0  0  0  0  0  0  0  0  0  0  0  0
    2.8416   -1.3943    0.0000 F   0  0  0  0  0  0  0  0  0  0  0  0
    4.7552   -3.7047    0.0000 Cl  0  0  0  0  0  0  0  0  0  0  0  0
  1  2  1  0
  2  3  1  0
  3  4  2  0
  3  5  1  0
  5  6  1  0
  6  7  1  0
  7  8  1  0
  8  9  1  0
  9 10  1  0
 10 11  1  0
  9 12  1  0
 12 13  1  0
 13 14  2  0
 14 15  1  0
 15 16  2  0
 16 17  1  0
 17 18  2  0
 18 19  1  0
 19 20  1  0
 16 21  1  0
 21 22  2  0
 22 23  1  0
 23 24  2  0
 24 25  1  0
 25 26  1  0
 26 27  2  0
 27 28  1  0
 28 29  2  0
 29 30  1  0
 30 31  2  0
 31 32  1  0
 30 33  1  0
 11  6  1  0
 18 13  1  0
 24 15  1  0
 31 26  1  0
M  END
>  <BrandName>  (180) 


>  <Applicants>  (180) 
Astrazeneca

>  <CHEMBL_ID>  (180) 
CHEMBL2408045

>  <Canonical_Smiles>  (180) 
CNC(=O)CN1CCC(CC1)Oc2cc3c(cc2OC)ncnc3Nc4cccc(c4F)Cl

>  <Chirality>  (180) 
Achiral Molecule

>  <First_Approval>  (180) 
nan

>  <Phase>  (180) 
2.0

>  <SC_Patent>  (180) 
nan

>  <Synonyms>  (180) 
AZD-8931 | AZD8931 | SAPITINIB

>  <Withdrawn>  (180) 
nan

>  <Indications>  (180) 
nan

>  <Type>  (180) 
nan

>  <targets_id>  (180) 
P00533|P04626|Q15303|P21860

>  <Inchi>  (180) 
InChI=1S/C23H25ClFN5O3/c1-26-21(31)12-30-8-6-14(7-9-30)33-20-10-15-18(11-19(20)32-2)27-13-28-23(15)29-17-5-3-4-16(24)22(17)25/h3-5,10-11,13-14H,6-9,12H2,1-2H3,(H,26,31)(H,27,28,29)

>  <stdInchikey>  (180) 
DFJSJLGUIXFDJP-UHFFFAOYSA-N

>  <csid>  (180) 
9663133

>  <Links>  (180) 
|http://www.chemspider.com/Chemical-Structure.9663133.html|https://www.ebi.ac.uk/chembldb/compound/inspect/CHEMBL2408045|https://pubchem.ncbi.nlm.nih.gov/compound/11488320|https://go.drugbank.com/drugs/DB12183|https://www.guidetopharmacology.org/GRAC/LigandDisplayForward?7717|https://zinc15.docking.org/substances/ZINC000034587071|https://precision.fda.gov/uniisearch/srs/unii/3499328002|https://www.bindingdb.org/bind/chemsearch/marvin/MolStructure.jsp?monomerid=50437353

>  <LinkName>  (180) 
|ChemSpider|ChEMBL|PubChem|DrugBank|Guide to Pharmacology|ZINC|FDA SRS|BindingDB

>  <lig_pdb_ID>  (180) 


>  <pdb_IDs>  (180) 


>  <indicationDB>  (180) 


>  <uniprotId>  (180) 


>  <indicationG2P>  (180) 
None

>  <MW>  (180) 
473.2

>  <HBA>  (180) 
7

>  <HBD>  (180) 
2

>  <NRB>  (180) 
7

>  <TPSA>  (180) 
88.6

>  <LogP>  (180) 
3.8

>  <RoF>  (180) 
0

>  <Melting point>  (180) 
nan

>  <Targets>  (180) 
EGFR; ERBB2; ERBB4; ERBB3

>  <Kinase families>  (180) 
Tyr

>  <FDA_approved>  (180) 


$$$$
Seletalisib
     RDKit          2D

 34 38  0  0  0  0  0  0  0  0999 V2000
    6.7285   -1.3616    0.0000 C   0  0  0  0  0  0  0  0  0  0  0  0
    5.3533   -1.9606    0.0000 C   0  0  0  0  0  0  0  0  0  0  0  0
    4.1470   -1.0692    0.0000 C   0  0  0  0  0  0  0  0  0  0  0  0
    2.7718   -1.6682    0.0000 C   0  0  0  0  0  0  0  0  0  0  0  0
    1.5654   -0.7767    0.0000 C   0  0  0  0  0  0  0  0  0  0  0  0
    1.7343    0.7137    0.0000 C   0  0  0  0  0  0  0  0  0  0  0  0
    3.1095    1.3127    0.0000 N   0  0  0  0  0  0  0  0  0  0  0  0
    4.3158    0.4213    0.0000 C   0  0  0  0  0  0  0  0  0  0  0  0
    5.6910    1.0203    0.0000 C   0  0  0  0  0  0  0  0  0  0  0  0
    6.8974    0.1288    0.0000 C   0  0  0  0  0  0  0  0  0  0  0  0
    5.8599    2.5108    0.0000 Cl  0  0  0  0  0  0  0  0  0  0  0  0
    0.5279    1.6052    0.0000 C   0  0  0  0  0  0  0  0  0  0  0  0
   -0.8473    1.0062    0.0000 C   0  0  0  0  0  0  0  0  0  0  0  0
   -2.0537    1.8976    0.0000 C   0  0  0  0  0  0  0  0  0  0  0  0
   -1.8848    3.3881    0.0000 C   0  0  0  0  0  0  0  0  0  0  0  0
   -0.5096    3.9871    0.0000 N   0  0  0  0  0  4  0  0  0  0  0  0
    0.6968    3.0957    0.0000 C   0  0  0  0  0  0  0  0  0  0  0  0
   -0.3408    5.4776    0.0000 O   0  0  0  0  0  1  0  0  0  0  0  0
    0.1902   -1.3757    0.0000 C   0  0  0  0  0  0  0  0  0  0  0  0
    0.0214   -2.8662    0.0000 C   0  0  0  0  0  0  0  0  0  0  0  0
   -0.1475   -4.3567    0.0000 F   0  0  0  0  0  0  0  0  0  0  0  0
   -1.4691   -2.6974    0.0000 F   0  0  0  0  0  0  0  0  0  0  0  0
    1.5118   -3.0351    0.0000 F   0  0  0  0  0  0  0  0  0  0  0  0
   -1.0161   -0.4843    0.0000 N   0  0  0  0  0  0  0  0  0  0  0  0
   -2.3914   -1.0833    0.0000 C   0  0  0  0  0  0  0  0  0  0  0  0
   -3.5977   -0.1918    0.0000 C   0  0  0  0  0  0  0  0  0  0  0  0
   -4.9729   -0.7908    0.0000 C   0  0  0  0  0  0  0  0  0  0  0  0
   -6.1793    0.1006    0.0000 C   0  0  0  0  0  0  0  0  0  0  0  0
   -6.0104    1.5911    0.0000 C   0  0  0  0  0  0  0  0  0  0  0  0
   -4.6352    2.1901    0.0000 C   0  0  0  0  0  0  0  0  0  0  0  0
   -3.4289    1.2986    0.0000 N   0  0  0  0  0  0  0  0  0  0  0  0
   -5.1418   -2.2813    0.0000 N   0  0  0  0  0  0  0  0  0  0  0  0
   -3.9354   -3.1728    0.0000 C   0  0  0  0  0  0  0  0  0  0  0  0
   -2.5602   -2.5738    0.0000 N   0  0  0  0  0  0  0  0  0  0  0  0
  1  2  2  0
  2  3  1  0
  3  4  2  0
  4  5  1  0
  5  6  2  0
  6  7  1  0
  7  8  2  0
  8  9  1  0
  9 10  2  0
  9 11  1  0
  6 12  1  0
 12 13  2  0
 13 14  1  0
 14 15  2  0
 15 16  1  0
 16 17  2  0
 16 18  1  0
  5 19  1  0
 19 20  1  0
 20 21  1  0
 20 22  1  0
 20 23  1  0
 19 24  1  6
 24 25  1  0
 25 26  1  0
 26 27  1  0
 27 28  2  0
 28 29  1  0
 29 30  2  0
 30 31  1  0
 27 32  1  0
 32 33  2  0
 33 34  1  0
 10  1  1  0
  8  3  1  0
 17 12  1  0
 34 25  2  0
 31 26  2  0
M  CHG  2  16   1  18  -1
M  END
>  <BrandName>  (181) 


>  <Applicants>  (181) 
UCB

>  <CHEMBL_ID>  (181) 
CHEMBL4297648

>  <Canonical_Smiles>  (181) 
c1cc2cc(c(nc2c(c1)Cl)c3ccc[n+](c3)[O-])[C@H](C(F)(F)F)Nc4c5c(cccn5)ncn4

>  <Chirality>  (181) 
Single Stereoisomer

>  <First_Approval>  (181) 
nan

>  <Phase>  (181) 
2.0

>  <SC_Patent>  (181) 
nan

>  <Synonyms>  (181) 
SELETALISIB | UCB-5857 | UCB5857

>  <Withdrawn>  (181) 
nan

>  <Indications>  (181) 
nan

>  <Type>  (181) 
nan

>  <targets_id>  (181) 
nan

>  <Inchi>  (181) 
InChI=1S/C23H14ClF3N6O/c24-16-6-1-4-13-10-15(18(31-19(13)16)14-5-3-9-33(34)11-14)21(23(25,26)27)32-22-20-17(29-12-30-22)7-2-8-28-20/h1-12,21H,(H,29,30,32)/t21-/m1/s1

>  <stdInchikey>  (181) 
LNLJHGXOFYUARS-OAQYLSRUSA-N

>  <csid>  (181) 
34985875

>  <Links>  (181) 
|http://www.chemspider.com/Chemical-Structure.34985875.html|https://www.ebi.ac.uk/chembldb/compound/inspect/CHEMBL4297648|https://pubchem.ncbi.nlm.nih.gov/compound/56928390|https://go.drugbank.com/drugs/DB12706|https://www.guidetopharmacology.org/GRAC/LigandDisplayForward?9800|https://precision.fda.gov/uniisearch/srs/unii/64CW205BDD|https://www.bindingdb.org/bind/chemsearch/marvin/MolStructure.jsp?monomerid=50512879

>  <LinkName>  (181) 
|ChemSpider|ChEMBL|PubChem|DrugBank|Guide to Pharmacology|FDA SRS|BindingDB

>  <lig_pdb_ID>  (181) 


>  <pdb_IDs>  (181) 


>  <indicationDB>  (181) 


>  <uniprotId>  (181) 


>  <indicationG2P>  (181) 
None

>  <MW>  (181) 
482.1

>  <HBA>  (181) 
6

>  <HBD>  (181) 
1

>  <NRB>  (181) 
4

>  <TPSA>  (181) 
90.5

>  <LogP>  (181) 
5.2

>  <RoF>  (181) 
1

>  <Melting point>  (181) 
nan

>  <Targets>  (181) 
nan

>  <Kinase families>  (181) 


>  <FDA_approved>  (181) 


$$$$
Tacaciclib
     RDKit          2D

 39 43  0  0  0  0  0  0  0  0999 V2000
   -5.3136    3.3672    0.0000 C   0  0  0  0  0  0  0  0  0  0  0  0
   -4.1530    2.4170    0.0000 C   0  0  0  0  0  0  0  0  0  0  0  0
   -2.7497    2.9471    0.0000 C   0  0  0  0  0  0  0  0  0  0  0  0
   -4.3955    0.9368    0.0000 C   0  0  0  0  0  0  0  0  0  0  0  0
   -5.7987    0.4067    0.0000 C   0  0  0  0  0  0  0  0  0  0  0  0
   -6.0413   -1.0736    0.0000 O   0  0  0  0  0  0  0  0  0  0  0  0
   -6.9594    1.3569    0.0000 N   0  0  0  0  0  0  0  0  0  0  0  0
   -8.3626    0.8268    0.0000 C   0  0  0  0  0  0  0  0  0  0  0  0
   -8.7585   -0.6200    0.0000 C   0  0  0  0  0  0  0  0  0  0  0  0
  -10.2569   -0.6905    0.0000 C   0  0  0  0  0  0  0  0  0  0  0  0
  -11.0805   -1.9442    0.0000 C   0  0  0  0  0  0  0  0  0  0  0  0
  -11.1670   -3.4417    0.0000 C   0  0  0  0  0  0  0  0  0  0  0  0
  -12.4207   -2.6180    0.0000 C   0  0  0  0  0  0  0  0  0  0  0  0
  -10.7870    0.7127    0.0000 N   0  0  0  0  0  0  0  0  0  0  0  0
   -9.6162    1.6504    0.0000 N   0  0  0  0  0  0  0  0  0  0  0  0
   -3.2348   -0.0134    0.0000 C   0  0  0  0  0  0  0  0  0  0  0  0
   -3.4774   -1.4937    0.0000 C   0  0  0  0  0  0  0  0  0  0  0  0
   -2.3167   -2.4438    0.0000 C   0  0  0  0  0  0  0  0  0  0  0  0
   -0.9135   -1.9138    0.0000 C   0  0  0  0  0  0  0  0  0  0  0  0
   -0.6709   -0.4335    0.0000 C   0  0  0  0  0  0  0  0  0  0  0  0
    0.7323    0.0966    0.0000 C   0  0  0  0  0  0  0  0  0  0  0  0
    1.8929   -0.8536    0.0000 C   0  0  0  0  0  0  0  0  0  0  0  0
    3.2962   -0.3235    0.0000 C   0  0  0  0  0  0  0  0  0  0  0  0
    3.5387    1.1568    0.0000 C   0  0  0  0  0  0  0  0  0  0  0  0
    4.9419    1.6868    0.0000 N   0  0  0  0  0  0  0  0  0  0  0  0
    6.1026    0.7367    0.0000 C   0  0  0  0  0  0  0  0  0  0  0  0
    5.8600   -0.7436    0.0000 O   0  0  0  0  0  0  0  0  0  0  0  0
    7.5058    1.2667    0.0000 C   0  0  0  0  0  0  0  0  0  0  0  0
    8.6665    0.3166    0.0000 C   0  0  0  0  0  0  0  0  0  0  0  0
   10.0697    0.8467    0.0000 C   0  0  0  0  0  0  0  0  0  0  0  0
   11.2304   -0.1035    0.0000 N   0  0  0  0  0  0  0  0  0  0  0  0
   10.9878   -1.5838    0.0000 C   0  0  0  0  0  0  0  0  0  0  0  0
   12.1485   -2.5340    0.0000 C   0  0  0  0  0  0  0  0  0  0  0  0
   13.5517   -2.0039    0.0000 O   0  0  0  0  0  0  0  0  0  0  0  0
   13.7943   -0.5236    0.0000 C   0  0  0  0  0  0  0  0  0  0  0  0
   12.6336    0.4266    0.0000 C   0  0  0  0  0  0  0  0  0  0  0  0
    2.3780    2.1069    0.0000 N   0  0  0  0  0  0  0  0  0  0  0  0
    0.9748    1.5769    0.0000 C   0  0  0  0  0  0  0  0  0  0  0  0
   -1.8316    0.5167    0.0000 C   0  0  0  0  0  0  0  0  0  0  0  0
  1  2  1  0
  2  3  1  0
  4  2  1  1
  4  5  1  0
  5  6  2  0
  5  7  1  0
  7  8  1  0
  8  9  1  0
  9 10  2  0
 10 11  1  0
 11 12  1  0
 12 13  1  0
 10 14  1  0
 14 15  1  0
  4 16  1  0
 16 17  2  0
 17 18  1  0
 18 19  2  0
 19 20  1  0
 20 21  1  0
 21 22  2  0
 22 23  1  0
 23 24  2  0
 24 25  1  0
 25 26  1  0
 26 27  2  0
 26 28  1  0
 28 29  2  0
 29 30  1  0
 30 31  1  0
 31 32  1  0
 32 33  1  0
 33 34  1  0
 34 35  1  0
 35 36  1  0
 24 37  1  0
 37 38  2  0
 20 39  2  0
 15  8  2  0
 39 16  1  0
 13 11  1  0
 38 21  1  0
 36 31  1  0
M  END
>  <BrandName>  (182) 


>  <Applicants>  (182) 
('',)

>  <CHEMBL_ID>  (182) 
CHEMBL5314541

>  <Canonical_Smiles>  (182) 
CC(C)[C@H](C(=O)Nc1cc(C2CC2)[nH]n1)c1cccc(-c2ccc(NC(=O)/C=C/CN3CCOCC3)nc2)c1

>  <Chirality>  (182) 
Unknown

>  <First_Approval>  (182) 
nan

>  <Phase>  (182) 
2.0

>  <SC_Patent>  (182) 
nan

>  <Synonyms>  (182) 
TACACICLIB

>  <Withdrawn>  (182) 
nan

>  <Indications>  (182) 
nan

>  <Type>  (182) 
nan

>  <targets_id>  (182) 
nan

>  <Inchi>  (182) 
InChI=1S/C30H36N6O3/c1-20(2)29(30(38)33-27-18-25(34-35-27)21-8-9-21)23-6-3-5-22(17-23)24-10-11-26(31-19-24)32-28(37)7-4-12-36-13-15-39-16-14-36/h3-7,10-11,17-21,29H,8-9,12-16H2,1-2H3,(H,31,32,37)(H2,33,34,35,38)/b7-4+/t29-/m0/s1

>  <stdInchikey>  (182) 
CVAXNGIXLUILFO-KPGJNUASSA-N

>  <csid>  (182) 
nan

>  <Links>  (182) 
|http://www.chemspider.com/Chemical-Structure.nan.html|https://www.ebi.ac.uk/chembldb/compound/inspect/CHEMBL5314541|https://pubchem.ncbi.nlm.nih.gov/compound/164533260

>  <LinkName>  (182) 
|ChemSpider|ChEMBL|PubChem

>  <lig_pdb_ID>  (182) 


>  <pdb_IDs>  (182) 


>  <indicationDB>  (182) 


>  <uniprotId>  (182) 


>  <indicationG2P>  (182) 


>  <MW>  (182) 
528.3

>  <HBA>  (182) 
6

>  <HBD>  (182) 
3

>  <NRB>  (182) 
10

>  <TPSA>  (182) 
112.2

>  <LogP>  (182) 
4.6

>  <RoF>  (182) 
1

>  <Melting point>  (182) 
nan

>  <Targets>  (182) 
nan

>  <Kinase families>  (182) 


>  <FDA_approved>  (182) 


$$$$
Gusacitinib
     RDKit          2D

 34 38  0  0  0  0  0  0  0  0999 V2000
    5.2761    7.4534    0.0000 N   0  0  0  0  0  0  0  0  0  0  0  0
    3.9767    6.7040    0.0000 C   0  0  0  0  0  0  0  0  0  0  0  0
    2.6773    5.9546    0.0000 C   0  0  0  0  0  0  0  0  0  0  0  0
    2.6766    4.4546    0.0000 C   0  0  0  0  0  0  0  0  0  0  0  0
    3.9753    3.7040    0.0000 C   0  0  0  0  0  0  0  0  0  0  0  0
    3.9746    2.2040    0.0000 C   0  0  0  0  0  0  0  0  0  0  0  0
    2.6752    1.4546    0.0000 N   0  0  0  0  0  0  0  0  0  0  0  0
    2.6745   -0.0454    0.0000 C   0  0  0  0  0  0  0  0  0  0  0  0
    1.3751   -0.7948    0.0000 N   0  0  0  0  0  0  0  0  0  0  0  0
    1.3744   -2.2948    0.0000 C   0  0  0  0  0  0  0  0  0  0  0  0
    0.0750   -3.0442    0.0000 N   0  0  0  0  0  0  0  0  0  0  0  0
   -1.2237   -2.2935    0.0000 C   0  0  0  0  0  0  0  0  0  0  0  0
   -1.2230   -0.7935    0.0000 C   0  0  0  0  0  0  0  0  0  0  0  0
   -2.5217   -0.0429    0.0000 C   0  0  0  0  0  0  0  0  0  0  0  0
   -3.8211   -0.7923    0.0000 C   0  0  0  0  0  0  0  0  0  0  0  0
   -5.1198   -0.0417    0.0000 N   0  0  0  0  0  0  0  0  0  0  0  0
   -5.1191    1.4583    0.0000 C   0  0  0  0  0  0  0  0  0  0  0  0
   -6.4177    2.2089    0.0000 C   0  0  0  0  0  0  0  0  0  0  0  0
   -7.7171    1.4595    0.0000 C   0  0  0  0  0  0  0  0  0  0  0  0
   -9.0158    2.2101    0.0000 O   0  0  0  0  0  0  0  0  0  0  0  0
   -7.7178   -0.0405    0.0000 C   0  0  0  0  0  0  0  0  0  0  0  0
   -6.4192   -0.7911    0.0000 C   0  0  0  0  0  0  0  0  0  0  0  0
   -3.8218   -2.2923    0.0000 C   0  0  0  0  0  0  0  0  0  0  0  0
   -2.5231   -3.0429    0.0000 C   0  0  0  0  0  0  0  0  0  0  0  0
    2.6731   -3.0454    0.0000 C   0  0  0  0  0  0  0  0  0  0  0  0
    2.6723   -4.5454    0.0000 C   0  0  0  0  0  0  0  0  0  0  0  0
    1.3730   -5.2948    0.0000 O   0  0  0  0  0  0  0  0  0  0  0  0
    3.9710   -5.2960    0.0000 N   0  0  0  0  0  0  0  0  0  0  0  0
    5.2704   -4.5466    0.0000 N   0  0  0  0  0  0  0  0  0  0  0  0
    5.2711   -3.0466    0.0000 C   0  0  0  0  0  0  0  0  0  0  0  0
    3.9724   -2.2960    0.0000 C   0  0  0  0  0  0  0  0  0  0  0  0
    3.9732   -0.7960    0.0000 N   0  0  0  0  0  0  0  0  0  0  0  0
    1.3765    2.2052    0.0000 C   0  0  0  0  0  0  0  0  0  0  0  0
    1.3772    3.7052    0.0000 C   0  0  0  0  0  0  0  0  0  0  0  0
  1  2  3  0
  2  3  1  0
  3  4  1  0
  4  5  1  0
  5  6  1  0
  6  7  1  0
  7  8  1  0
  8  9  2  0
  9 10  1  0
 10 11  1  0
 11 12  1  0
 12 13  2  0
 13 14  1  0
 14 15  2  0
 15 16  1  0
 16 17  1  0
 17 18  1  0
 18 19  1  0
 19 20  1  0
 19 21  1  0
 21 22  1  0
 15 23  1  0
 23 24  2  0
 10 25  2  0
 25 26  1  0
 26 27  2  0
 26 28  1  0
 28 29  1  0
 29 30  2  0
 30 31  1  0
 31 32  2  0
  7 33  1  0
 33 34  1  0
 34  4  1  0
 32  8  1  0
 24 12  1  0
 31 25  1  0
 22 16  1  0
M  END
>  <BrandName>  (183) 


>  <Applicants>  (183) 
Asana BioSciences

>  <CHEMBL_ID>  (183) 
CHEMBL4594275

>  <Canonical_Smiles>  (183) 
N#CCC1CCN(c2nc(Nc3ccc(N4CCC(O)CC4)cc3)c3c(=O)[nH]ncc3n2)CC1

>  <Chirality>  (183) 
Achiral Molecule

>  <First_Approval>  (183) 
nan

>  <Phase>  (183) 
2.0

>  <SC_Patent>  (183) 
nan

>  <Synonyms>  (183) 
ASN-002 | ASN002 | EN-3351 | EN3351 | GUSACITINIB

>  <Withdrawn>  (183) 
nan

>  <Indications>  (183) 
nan

>  <Type>  (183) 
nan

>  <targets_id>  (183) 
nan

>  <Inchi>  (183) 
InChI=1S/C24H28N8O2/c25-10-5-16-6-11-32(12-7-16)24-28-20-15-26-30-23(34)21(20)22(29-24)27-17-1-3-18(4-2-17)31-13-8-19(33)9-14-31/h1-4,15-16,19,33H,5-9,11-14H2,(H,30,34)(H,27,28,29)

>  <stdInchikey>  (183) 
NLFLXLJXEIUQDL-UHFFFAOYSA-N

>  <csid>  (183) 
71117451

>  <Links>  (183) 
|http://www.chemspider.com/Chemical-Structure.71117451.html|https://www.ebi.ac.uk/chembldb/compound/inspect/CHEMBL4594275|https://pubchem.ncbi.nlm.nih.gov/compound/71269142|https://go.drugbank.com/drugs/DB15670|https://www.guidetopharmacology.org/GRAC/LigandDisplayForward?10000|https://precision.fda.gov/uniisearch/srs/unii/4801QYW816

>  <LinkName>  (183) 
|ChemSpider|ChEMBL|PubChem|DrugBank|Guide to Pharmacology|FDA SRS

>  <lig_pdb_ID>  (183) 


>  <pdb_IDs>  (183) 


>  <indicationDB>  (183) 


>  <uniprotId>  (183) 


>  <indicationG2P>  (183) 
None

>  <MW>  (183) 
460.2

>  <HBA>  (183) 
9

>  <HBD>  (183) 
3

>  <NRB>  (183) 
5

>  <TPSA>  (183) 
134.1

>  <LogP>  (183) 
2.5

>  <RoF>  (183) 
0

>  <Melting point>  (183) 
nan

>  <Targets>  (183) 
nan

>  <Kinase families>  (183) 


>  <FDA_approved>  (183) 


$$$$
Narmafotinib
     RDKit          2D

 38 41  0  0  0  0  0  0  0  0999 V2000
   -3.0204   -2.8317    0.0000 C   0  0  0  0  0  0  0  0  0  0  0  0
   -2.3264   -1.5019    0.0000 O   0  0  0  0  0  0  0  0  0  0  0  0
   -3.1310   -0.2360    0.0000 C   0  0  0  0  0  0  0  0  0  0  0  0
   -4.6296   -0.2998    0.0000 C   0  0  0  0  0  0  0  0  0  0  0  0
   -5.4342    0.9662    0.0000 C   0  0  0  0  0  0  0  0  0  0  0  0
   -6.9328    0.9023    0.0000 C   0  0  0  0  0  0  0  0  0  0  0  0
   -7.7374    2.1683    0.0000 C   0  0  0  0  0  0  0  0  0  0  0  0
   -9.2361    2.1045    0.0000 C   0  0  0  0  0  0  0  0  0  0  0  0
   -9.9301    0.7747    0.0000 N   0  0  0  0  0  0  0  0  0  0  0  0
  -11.4288    0.7109    0.0000 C   0  0  0  0  0  0  0  0  0  0  0  0
   -9.1255   -0.4913    0.0000 C   0  0  0  0  0  0  0  0  0  0  0  0
   -7.6269   -0.4274    0.0000 C   0  0  0  0  0  0  0  0  0  0  0  0
   -4.7401    2.2959    0.0000 C   0  0  0  0  0  0  0  0  0  0  0  0
   -3.2415    2.3597    0.0000 C   0  0  0  0  0  0  0  0  0  0  0  0
   -2.4369    1.0938    0.0000 C   0  0  0  0  0  0  0  0  0  0  0  0
   -0.9383    1.1576    0.0000 N   0  0  0  0  0  0  0  0  0  0  0  0
   -0.1337   -0.1083    0.0000 C   0  0  0  0  0  0  0  0  0  0  0  0
   -0.8277   -1.4381    0.0000 N   0  0  0  0  0  0  0  0  0  0  0  0
   -0.0231   -2.7041    0.0000 C   0  0  0  0  0  0  0  0  0  0  0  0
    1.4755   -2.6402    0.0000 C   0  0  0  0  0  0  0  0  0  0  0  0
    2.2801   -3.9062    0.0000 C   0  0  0  0  0  0  0  0  0  0  0  0
    3.0847   -5.1722    0.0000 F   0  0  0  0  0  0  0  0  0  0  0  0
    1.0141   -4.7108    0.0000 F   0  0  0  0  0  0  0  0  0  0  0  0
    3.5461   -3.1016    0.0000 F   0  0  0  0  0  0  0  0  0  0  0  0
    2.1696   -1.3105    0.0000 C   0  0  0  0  0  0  0  0  0  0  0  0
    3.6682   -1.2467    0.0000 C   0  0  0  0  0  0  0  0  0  0  0  0
    4.3623    0.0831    0.0000 C   0  0  0  0  0  0  0  0  0  0  0  0
    5.8609    0.1469    0.0000 C   0  0  0  0  0  0  0  0  0  0  0  0
    6.6655   -1.1190    0.0000 C   0  0  0  0  0  0  0  0  0  0  0  0
    8.1641   -1.0552    0.0000 C   0  0  0  0  0  0  0  0  0  0  0  0
    8.8582    0.2746    0.0000 C   0  0  0  0  0  0  0  0  0  0  0  0
    8.0536    1.5405    0.0000 C   0  0  0  0  0  0  0  0  0  0  0  0
    6.5549    1.4767    0.0000 C   0  0  0  0  0  0  0  0  0  0  0  0
    5.7504    2.7427    0.0000 C   0  0  0  0  0  0  0  0  0  0  0  0
    6.4444    4.0724    0.0000 C   0  0  0  0  0  0  0  0  0  0  0  0
    5.6398    5.3384    0.0000 N   0  0  0  0  0  0  0  0  0  0  0  0
    7.9431    4.1362    0.0000 O   0  0  0  0  0  0  0  0  0  0  0  0
    1.3650   -0.0445    0.0000 N   0  0  0  0  0  0  0  0  0  0  0  0
  1  2  1  0
  2  3  1  0
  3  4  2  0
  4  5  1  0
  5  6  1  0
  6  7  1  0
  7  8  1  0
  8  9  1  0
  9 10  1  0
  9 11  1  0
 11 12  1  0
  5 13  2  0
 13 14  1  0
 14 15  2  0
 15 16  1  0
 16 17  1  0
 17 18  2  0
 18 19  1  0
 19 20  2  0
 20 21  1  0
 21 22  1  0
 21 23  1  0
 21 24  1  0
 20 25  1  0
 25 26  1  0
 26 27  1  0
 27 28  1  0
 28 29  2  0
 29 30  1  0
 30 31  2  0
 31 32  1  0
 32 33  2  0
 33 34  1  0
 34 35  1  0
 35 36  1  0
 35 37  2  0
 25 38  2  0
 15  3  1  0
 38 17  1  0
 12  6  1  0
 33 28  1  0
M  END
>  <BrandName>  (184) 


>  <Applicants>  (184) 
('Amplia Therapeutics',)

>  <CHEMBL_ID>  (184) 
CHEMBL3689071

>  <Canonical_Smiles>  (184) 
COc1cc(C2CCN(C)CC2)ccc1Nc1ncc(C(F)(F)F)c(CCc2ccccc2CC(N)=O)n1

>  <Chirality>  (184) 
Achiral Molecule

>  <First_Approval>  (184) 
nan

>  <Phase>  (184) 
2.0

>  <SC_Patent>  (184) 
nan

>  <Synonyms>  (184) 
AMP-945 | AMP945 | NARMAFOTINIB

>  <Withdrawn>  (184) 
nan

>  <Indications>  (184) 
nan

>  <Type>  (184) 
nan

>  <targets_id>  (184) 
nan

>  <Inchi>  (184) 
InChI=1S/C28H32F3N5O2/c1-36-13-11-19(12-14-36)21-8-10-24(25(15-21)38-2)35-27-33-17-22(28(29,30)31)23(34-27)9-7-18-5-3-4-6-20(18)16-26(32)37/h3-6,8,10,15,17,19H,7,9,11-14,16H2,1-2H3,(H2,32,37)(H,33,34,35)

>  <stdInchikey>  (184) 
AWJVIOYPZZZYAX-UHFFFAOYSA-N

>  <csid>  (184) 
58941272

>  <Links>  (184) 
|http://www.chemspider.com/Chemical-Structure.58941272.html|https://www.ebi.ac.uk/chembldb/compound/inspect/CHEMBL3689071|https://pubchem.ncbi.nlm.nih.gov/compound/60162119|https://go.drugbank.com/drugs/DB18463|https://zinc15.docking.org/substances/ZINC000147924474|https://precision.fda.gov/uniisearch/srs/unii/16T7U12J7U|https://www.bindingdb.org/bind/chemsearch/marvin/MolStructure.jsp?monomerid=176589

>  <LinkName>  (184) 
|ChemSpider|ChEMBL|PubChem|DrugBank|ZINC|FDA SRS|BindingDB

>  <lig_pdb_ID>  (184) 


>  <pdb_IDs>  (184) 


>  <indicationDB>  (184) 


>  <uniprotId>  (184) 


>  <indicationG2P>  (184) 


>  <MW>  (184) 
527.3

>  <HBA>  (184) 
6

>  <HBD>  (184) 
2

>  <NRB>  (184) 
9

>  <TPSA>  (184) 
93.4

>  <LogP>  (184) 
4.9

>  <RoF>  (184) 
1

>  <Melting point>  (184) 
nan

>  <Targets>  (184) 
nan

>  <Kinase families>  (184) 


>  <FDA_approved>  (184) 


$$$$
Vulolisib
     RDKit          2D

 29 32  0  0  0  0  0  0  0  0999 V2000
    7.7539   -0.9414    0.0000 C   0  0  0  0  0  0  0  0  0  0  0  0
    6.2592   -0.8147    0.0000 C   0  0  0  0  0  0  0  0  0  0  0  0
    5.6216    0.5431    0.0000 N   0  0  0  0  0  0  0  0  0  0  0  0
    4.1270    0.6698    0.0000 C   0  0  0  0  0  0  0  0  0  0  0  0
    3.2699   -0.5613    0.0000 C   0  0  0  0  0  0  0  0  0  0  0  0
    1.7753   -0.4346    0.0000 C   0  0  0  0  0  0  0  0  0  0  0  0
    1.1377    0.9232    0.0000 C   0  0  0  0  0  0  0  0  0  0  0  0
    1.9947    2.1542    0.0000 C   0  0  0  0  0  0  0  0  0  0  0  0
    3.4894    2.0275    0.0000 C   0  0  0  0  0  0  0  0  0  0  0  0
    1.5666    3.5918    0.0000 O   0  0  0  0  0  0  0  0  0  0  0  0
    0.1758    4.1535    0.0000 C   0  0  0  0  0  0  0  0  0  0  0  0
   -1.1306    3.4162    0.0000 C   0  0  0  0  0  0  0  0  0  0  0  0
   -1.3686    1.9352    0.0000 N   0  0  0  0  0  0  0  0  0  0  0  0
   -2.7357    1.3180    0.0000 C   0  0  0  0  0  0  0  0  0  0  0  0
   -2.5712   -0.1729    0.0000 C   0  0  0  0  0  0  0  0  0  0  0  0
   -3.6807   -1.1824    0.0000 N   0  0  0  0  0  0  0  0  0  0  0  0
   -3.5162   -2.6734    0.0000 C   0  0  0  0  0  0  0  0  0  0  0  0
   -2.2132   -3.4166    0.0000 O   0  0  0  0  0  0  0  0  0  0  0  0
   -4.8833   -3.2906    0.0000 S   0  0  0  0  0  0  0  0  0  0  0  0
   -5.8928   -2.1811    0.0000 C   0  0  0  0  0  0  0  0  0  0  0  0
   -5.1495   -0.8782    0.0000 C   0  0  0  0  0  0  0  0  0  0  0  0
   -5.7667    0.4890    0.0000 C   0  0  0  0  0  0  0  0  0  0  0  0
   -7.2593    0.6380    0.0000 F   0  0  0  0  0  0  0  0  0  0  0  0
   -4.8914    1.7071    0.0000 F   0  0  0  0  0  0  0  0  0  0  0  0
   -1.1024   -0.4772    0.0000 N   0  0  0  0  0  0  0  0  0  0  0  0
   -0.3591    0.8257    0.0000 C   0  0  0  0  0  0  0  0  0  0  0  0
    5.4022   -2.0457    0.0000 C   0  0  0  0  0  0  0  0  0  0  0  0
    6.0398   -3.4035    0.0000 N   0  0  0  0  0  0  0  0  0  0  0  0
    3.9075   -1.9190    0.0000 O   0  0  0  0  0  0  0  0  0  0  0  0
  2  1  1  1
  2  3  1  0
  3  4  1  0
  4  5  2  0
  5  6  1  0
  6  7  2  0
  7  8  1  0
  8  9  2  0
  8 10  1  0
 10 11  1  0
 11 12  1  0
 12 13  1  0
 13 14  1  0
 14 15  2  0
 15 16  1  0
 16 17  1  0
 17 18  2  0
 17 19  1  0
 19 20  1  0
 20 21  1  0
 21 22  1  1
 22 23  1  0
 22 24  1  0
 15 25  1  0
 25 26  2  0
  2 27  1  0
 27 28  1  0
 27 29  2  0
  9  4  1  0
 26 13  1  0
 26  7  1  0
 21 16  1  0
M  END
>  <BrandName>  (185) 


>  <Applicants>  (185) 
('',)

>  <CHEMBL_ID>  (185) 
CHEMBL5314447

>  <Canonical_Smiles>  (185) 
C[C@H](Nc1ccc2c(c1)OCCn1cc(N3C(=O)SC[C@H]3C(F)F)nc1-2)C(N)=O

>  <Chirality>  (185) 
Unknown

>  <First_Approval>  (185) 
nan

>  <Phase>  (185) 
2.0

>  <SC_Patent>  (185) 
nan

>  <Synonyms>  (185) 
VULOLISIB

>  <Withdrawn>  (185) 
nan

>  <Indications>  (185) 
nan

>  <Type>  (185) 
nan

>  <targets_id>  (185) 
nan

>  <Inchi>  (185) 
InChI=1S/C18H19F2N5O3S/c1-9(16(21)26)22-10-2-3-11-13(6-10)28-5-4-24-7-14(23-17(11)24)25-12(15(19)20)8-29-18(25)27/h2-3,6-7,9,12,15,22H,4-5,8H2,1H3,(H2,21,26)/t9-,12-/m0/s1

>  <stdInchikey>  (185) 
KEEKMOIRJUWKNK-CABZTGNLSA-N

>  <csid>  (185) 
129156089

>  <Links>  (185) 
|http://www.chemspider.com/Chemical-Structure.129156089.html|https://www.ebi.ac.uk/chembldb/compound/inspect/CHEMBL5314447|https://pubchem.ncbi.nlm.nih.gov/compound/146267141

>  <LinkName>  (185) 
|ChemSpider|ChEMBL|PubChem

>  <lig_pdb_ID>  (185) 


>  <pdb_IDs>  (185) 


>  <indicationDB>  (185) 


>  <uniprotId>  (185) 


>  <indicationG2P>  (185) 


>  <MW>  (185) 
423.1

>  <HBA>  (185) 
7

>  <HBD>  (185) 
2

>  <NRB>  (185) 
5

>  <TPSA>  (185) 
102.5

>  <LogP>  (185) 
2.5

>  <RoF>  (185) 
0

>  <Melting point>  (185) 
nan

>  <Targets>  (185) 
nan

>  <Kinase families>  (185) 


>  <FDA_approved>  (185) 


$$$$
Denfivontinib
     RDKit          2D

 34 38  0  0  0  0  0  0  0  0999 V2000
   -6.1293   -5.6134    0.0000 C   0  0  0  0  0  0  0  0  0  0  0  0
   -4.9602   -4.6736    0.0000 N   0  0  0  0  0  0  0  0  0  0  0  0
   -5.1895   -3.1912    0.0000 C   0  0  0  0  0  0  0  0  0  0  0  0
   -4.0204   -2.2514    0.0000 C   0  0  0  0  0  0  0  0  0  0  0  0
   -2.6220   -2.7940    0.0000 C   0  0  0  0  0  0  0  0  0  0  0  0
   -1.4529   -1.8542    0.0000 N   0  0  0  0  0  0  0  0  0  0  0  0
   -1.6822   -0.3719    0.0000 C   0  0  0  0  0  0  0  0  0  0  0  0
   -0.5131    0.5679    0.0000 N   0  0  0  0  0  0  0  0  0  0  0  0
   -0.7425    2.0503    0.0000 C   0  0  0  0  0  0  0  0  0  0  0  0
    0.4266    2.9901    0.0000 N   0  0  0  0  0  0  0  0  0  0  0  0
    1.8251    2.4475    0.0000 C   0  0  0  0  0  0  0  0  0  0  0  0
    2.0544    0.9651    0.0000 C   0  0  0  0  0  0  0  0  0  0  0  0
    3.4528    0.4226    0.0000 C   0  0  0  0  0  0  0  0  0  0  0  0
    4.6219    1.3624    0.0000 C   0  0  0  0  0  0  0  0  0  0  0  0
    6.0204    0.8198    0.0000 O   0  0  0  0  0  0  0  0  0  0  0  0
    6.2497   -0.6626    0.0000 C   0  0  0  0  0  0  0  0  0  0  0  0
    5.0806   -1.6024    0.0000 C   0  0  0  0  0  0  0  0  0  0  0  0
    5.3099   -3.0847    0.0000 C   0  0  0  0  0  0  0  0  0  0  0  0
    6.7084   -3.6273    0.0000 C   0  0  0  0  0  0  0  0  0  0  0  0
    7.8775   -2.6875    0.0000 C   0  0  0  0  0  0  0  0  0  0  0  0
    7.6481   -1.2051    0.0000 C   0  0  0  0  0  0  0  0  0  0  0  0
    4.3926    2.8447    0.0000 C   0  0  0  0  0  0  0  0  0  0  0  0
    2.9942    3.3873    0.0000 C   0  0  0  0  0  0  0  0  0  0  0  0
   -2.1409    2.5929    0.0000 C   0  0  0  0  0  0  0  0  0  0  0  0
   -2.3702    4.0752    0.0000 C   0  0  0  0  0  0  0  0  0  0  0  0
   -1.2011    5.0150    0.0000 O   0  0  0  0  0  0  0  0  0  0  0  0
   -3.7687    4.6178    0.0000 N   0  0  0  0  0  0  0  0  0  0  0  0
   -4.9378    3.6780    0.0000 C   0  0  0  0  0  0  0  0  0  0  0  0
   -4.7084    2.1956    0.0000 C   0  0  0  0  0  0  0  0  0  0  0  0
   -5.8775    1.2559    0.0000 Br  0  0  0  0  0  0  0  0  0  0  0  0
   -3.3100    1.6531    0.0000 C   0  0  0  0  0  0  0  0  0  0  0  0
   -3.0807    0.1707    0.0000 N   0  0  0  0  0  0  0  0  0  0  0  0
   -2.3927   -4.2764    0.0000 C   0  0  0  0  0  0  0  0  0  0  0  0
   -3.5618   -5.2162    0.0000 C   0  0  0  0  0  0  0  0  0  0  0  0
  1  2  1  0
  2  3  1  0
  3  4  1  0
  4  5  1  0
  5  6  1  0
  6  7  1  0
  7  8  2  0
  8  9  1  0
  9 10  1  0
 10 11  1  0
 11 12  2  0
 12 13  1  0
 13 14  2  0
 14 15  1  0
 15 16  1  0
 16 17  2  0
 17 18  1  0
 18 19  2  0
 19 20  1  0
 20 21  2  0
 14 22  1  0
 22 23  2  0
  9 24  2  0
 24 25  1  0
 25 26  2  0
 25 27  1  0
 27 28  1  0
 28 29  2  0
 29 30  1  0
 29 31  1  0
 31 32  2  0
  5 33  1  0
 33 34  1  0
 34  2  1  0
 32  7  1  0
 23 11  1  0
 31 24  1  0
 21 16  1  0
M  END
>  <BrandName>  (186) 


>  <Applicants>  (186) 
Genosco

>  <CHEMBL_ID>  (186) 
CHEMBL4544478

>  <Canonical_Smiles>  (186) 
CN1CCC(Nc2nc(Nc3ccc(Oc4ccccc4)cc3)c3c(=O)[nH]cc(Br)c3n2)CC1

>  <Chirality>  (186) 
Achiral Molecule

>  <First_Approval>  (186) 
nan

>  <Phase>  (186) 
2.0

>  <SC_Patent>  (186) 
nan

>  <Synonyms>  (186) 
DENFIVONTINIB | G-749

>  <Withdrawn>  (186) 
nan

>  <Indications>  (186) 
nan

>  <Type>  (186) 
nan

>  <targets_id>  (186) 
nan

>  <Inchi>  (186) 
InChI=1S/C25H25BrN6O2/c1-32-13-11-17(12-14-32)29-25-30-22-20(26)15-27-24(33)21(22)23(31-25)28-16-7-9-19(10-8-16)34-18-5-3-2-4-6-18/h2-10,15,17H,11-14H2,1H3,(H,27,33)(H2,28,29,30,31)

>  <stdInchikey>  (186) 
SXWMIXPJPNCXQQ-UHFFFAOYSA-N

>  <csid>  (186) 
32813334

>  <Links>  (186) 
|http://www.chemspider.com/Chemical-Structure.32813334.html|https://www.ebi.ac.uk/chembldb/compound/inspect/CHEMBL4544478|https://pubchem.ncbi.nlm.nih.gov/compound/78357765|https://go.drugbank.com/drugs/DB17159|https://www.guidetopharmacology.org/GRAC/LigandDisplayForward?8108|https://zinc15.docking.org/substances/ZINC000095644293|https://precision.fda.gov/uniisearch/srs/unii/B06W426B66

>  <LinkName>  (186) 
|ChemSpider|ChEMBL|PubChem|DrugBank|Guide to Pharmacology|ZINC|FDA SRS

>  <lig_pdb_ID>  (186) 


>  <pdb_IDs>  (186) 


>  <indicationDB>  (186) 


>  <uniprotId>  (186) 


>  <indicationG2P>  (186) 
None

>  <MW>  (186) 
520.1

>  <HBA>  (186) 
7

>  <HBD>  (186) 
3

>  <NRB>  (186) 
6

>  <TPSA>  (186) 
95.2

>  <LogP>  (186) 
5.1

>  <RoF>  (186) 
2

>  <Melting point>  (186) 
nan

>  <Targets>  (186) 
nan

>  <Kinase families>  (186) 


>  <FDA_approved>  (186) 


$$$$
Zorifertinib
     RDKit          2D

 32 35  0  0  0  0  0  0  0  0999 V2000
   -3.8643   -3.3196    0.0000 C   0  0  0  0  0  0  0  0  0  0  0  0
   -2.5762   -4.0882    0.0000 O   0  0  0  0  0  0  0  0  0  0  0  0
   -1.2665   -3.3571    0.0000 C   0  0  0  0  0  0  0  0  0  0  0  0
    0.0216   -4.1257    0.0000 C   0  0  0  0  0  0  0  0  0  0  0  0
    1.3314   -3.3946    0.0000 C   0  0  0  0  0  0  0  0  0  0  0  0
    2.6194   -4.1633    0.0000 N   0  0  0  0  0  0  0  0  0  0  0  0
    3.9292   -3.4321    0.0000 C   0  0  0  0  0  0  0  0  0  0  0  0
    3.9508   -1.9322    0.0000 N   0  0  0  0  0  0  0  0  0  0  0  0
    2.6627   -1.1636    0.0000 C   0  0  0  0  0  0  0  0  0  0  0  0
    2.6844    0.3363    0.0000 N   0  0  0  0  0  0  0  0  0  0  0  0
    3.9941    1.0674    0.0000 C   0  0  0  0  0  0  0  0  0  0  0  0
    5.2822    0.2988    0.0000 C   0  0  0  0  0  0  0  0  0  0  0  0
    6.5919    1.0299    0.0000 C   0  0  0  0  0  0  0  0  0  0  0  0
    6.6136    2.5298    0.0000 C   0  0  0  0  0  0  0  0  0  0  0  0
    5.3255    3.2985    0.0000 C   0  0  0  0  0  0  0  0  0  0  0  0
    5.3472    4.7983    0.0000 Cl  0  0  0  0  0  0  0  0  0  0  0  0
    4.0158    2.5673    0.0000 C   0  0  0  0  0  0  0  0  0  0  0  0
    2.7277    3.3360    0.0000 F   0  0  0  0  0  0  0  0  0  0  0  0
    1.3530   -1.8947    0.0000 C   0  0  0  0  0  0  0  0  0  0  0  0
    0.0649   -1.1261    0.0000 C   0  0  0  0  0  0  0  0  0  0  0  0
   -1.2448   -1.8572    0.0000 C   0  0  0  0  0  0  0  0  0  0  0  0
   -2.5329   -1.0885    0.0000 O   0  0  0  0  0  0  0  0  0  0  0  0
   -2.5112    0.4113    0.0000 C   0  0  0  0  0  0  0  0  0  0  0  0
   -1.2015    1.1425    0.0000 O   0  0  0  0  0  0  0  0  0  0  0  0
   -3.7993    1.1800    0.0000 N   0  0  0  0  0  0  0  0  0  0  0  0
   -3.7776    2.6798    0.0000 C   0  0  0  0  0  0  0  0  0  0  0  0
   -5.0657    3.4485    0.0000 C   0  0  0  0  0  0  0  0  0  0  0  0
   -6.3754    2.7173    0.0000 N   0  0  0  0  0  0  0  0  0  0  0  0
   -7.6635    3.4860    0.0000 C   0  0  0  0  0  0  0  0  0  0  0  0
   -6.3971    1.2175    0.0000 C   0  0  0  0  0  0  0  0  0  0  0  0
   -5.1090    0.4488    0.0000 C   0  0  0  0  0  0  0  0  0  0  0  0
   -5.1307   -1.0510    0.0000 C   0  0  0  0  0  0  0  0  0  0  0  0
  1  2  1  0
  2  3  1  0
  3  4  2  0
  4  5  1  0
  5  6  2  0
  6  7  1  0
  7  8  2  0
  8  9  1  0
  9 10  1  0
 10 11  1  0
 11 12  2  0
 12 13  1  0
 13 14  2  0
 14 15  1  0
 15 16  1  0
 15 17  2  0
 17 18  1  0
  9 19  2  0
 19 20  1  0
 20 21  2  0
 21 22  1  0
 22 23  1  0
 23 24  2  0
 23 25  1  0
 25 26  1  0
 26 27  1  0
 27 28  1  0
 28 29  1  0
 28 30  1  0
 30 31  1  0
 31 32  1  6
 21  3  1  0
 31 25  1  0
 19  5  1  0
 17 11  1  0
M  END
>  <BrandName>  (187) 


>  <Applicants>  (187) 
Astrazeneca

>  <CHEMBL_ID>  (187) 
CHEMBL3623290

>  <Canonical_Smiles>  (187) 
COc1cc2ncnc(Nc3cccc(Cl)c3F)c2cc1OC(=O)N1CCN(C)C[C@H]1C

>  <Chirality>  (187) 
Single Stereoisomer

>  <First_Approval>  (187) 
nan

>  <Phase>  (187) 
2.0

>  <SC_Patent>  (187) 
nan

>  <Synonyms>  (187) 
AZD 3759 | AZD-3759 | AZD3759 | ZORIFERTINIB

>  <Withdrawn>  (187) 
nan

>  <Indications>  (187) 
nan

>  <Type>  (187) 
nan

>  <targets_id>  (187) 
nan

>  <Inchi>  (187) 
InChI=1S/C22H23ClFN5O3/c1-13-11-28(2)7-8-29(13)22(30)32-19-9-14-17(10-18(19)31-3)25-12-26-21(14)27-16-6-4-5-15(23)20(16)24/h4-6,9-10,12-13H,7-8,11H2,1-3H3,(H,25,26,27)/t13-/m1/s1

>  <stdInchikey>  (187) 
MXDSJQHFFDGFDK-CYBMUJFWSA-N

>  <csid>  (187) 
38772332

>  <Links>  (187) 
|http://www.chemspider.com/Chemical-Structure.38772332.html|https://www.ebi.ac.uk/chembldb/compound/inspect/CHEMBL3623290|https://pubchem.ncbi.nlm.nih.gov/compound/78209992|https://go.drugbank.com/drugs/DB14795|https://www.guidetopharmacology.org/GRAC/LigandDisplayForward?10456|https://zinc15.docking.org/substances/ZINC000221149242|https://precision.fda.gov/uniisearch/srs/unii/67SX9H68W2|https://www.bindingdb.org/bind/chemsearch/marvin/MolStructure.jsp?monomerid=50123453

>  <LinkName>  (187) 
|ChemSpider|ChEMBL|PubChem|DrugBank|Guide to Pharmacology|ZINC|FDA SRS|BindingDB

>  <lig_pdb_ID>  (187) 


>  <pdb_IDs>  (187) 


>  <indicationDB>  (187) 


>  <uniprotId>  (187) 


>  <indicationG2P>  (187) 
None

>  <MW>  (187) 
459.1

>  <HBA>  (187) 
7

>  <HBD>  (187) 
1

>  <NRB>  (187) 
4

>  <TPSA>  (187) 
79.8

>  <LogP>  (187) 
4.3

>  <RoF>  (187) 
0

>  <Melting point>  (187) 
nan

>  <Targets>  (187) 
nan

>  <Kinase families>  (187) 


>  <FDA_approved>  (187) 


$$$$
Tamatinib
     RDKit          2D

 34 37  0  0  0  0  0  0  0  0999 V2000
   -8.8557   -2.0564    0.0000 C   0  0  0  0  0  0  0  0  0  0  0  0
   -8.3456   -0.6458    0.0000 C   0  0  0  0  0  0  0  0  0  0  0  0
   -8.3488    0.8542    0.0000 C   0  0  0  0  0  0  0  0  0  0  0  0
   -9.6495    1.6014    0.0000 O   0  0  0  0  0  0  0  0  0  0  0  0
   -7.0514    1.6070    0.0000 N   0  0  0  0  0  0  0  0  0  0  0  0
   -5.7508    0.8598    0.0000 C   0  0  0  0  0  0  0  0  0  0  0  0
   -5.7476   -0.6402    0.0000 C   0  0  0  0  0  0  0  0  0  0  0  0
   -4.4469   -1.3875    0.0000 C   0  0  0  0  0  0  0  0  0  0  0  0
   -3.1495   -0.6347    0.0000 C   0  0  0  0  0  0  0  0  0  0  0  0
   -3.1527    0.8653    0.0000 C   0  0  0  0  0  0  0  0  0  0  0  0
   -4.4533    1.6125    0.0000 N   0  0  0  0  0  0  0  0  0  0  0  0
   -1.8553    1.6181    0.0000 N   0  0  0  0  0  0  0  0  0  0  0  0
   -0.5546    0.8708    0.0000 C   0  0  0  0  0  0  0  0  0  0  0  0
   -0.5514   -0.6291    0.0000 C   0  0  0  0  0  0  0  0  0  0  0  0
    0.7492   -1.3764    0.0000 C   0  0  0  0  0  0  0  0  0  0  0  0
    2.0466   -0.6236    0.0000 N   0  0  0  0  0  0  0  0  0  0  0  0
    2.0434    0.8764    0.0000 C   0  0  0  0  0  0  0  0  0  0  0  0
    0.7428    1.6236    0.0000 N   0  0  0  0  0  0  0  0  0  0  0  0
    3.3409    1.6292    0.0000 N   0  0  0  0  0  0  0  0  0  0  0  0
    4.6415    0.8819    0.0000 C   0  0  0  0  0  0  0  0  0  0  0  0
    4.6447   -0.6181    0.0000 C   0  0  0  0  0  0  0  0  0  0  0  0
    5.9453   -1.3653    0.0000 C   0  0  0  0  0  0  0  0  0  0  0  0
    7.2428   -0.6125    0.0000 C   0  0  0  0  0  0  0  0  0  0  0  0
    7.2396    0.8875    0.0000 C   0  0  0  0  0  0  0  0  0  0  0  0
    5.9389    1.6347    0.0000 C   0  0  0  0  0  0  0  0  0  0  0  0
    8.5370    1.6403    0.0000 O   0  0  0  0  0  0  0  0  0  0  0  0
    8.5338    3.1402    0.0000 C   0  0  0  0  0  0  0  0  0  0  0  0
    8.5434   -1.3597    0.0000 O   0  0  0  0  0  0  0  0  0  0  0  0
    9.8408   -0.6070    0.0000 C   0  0  0  0  0  0  0  0  0  0  0  0
    5.9485   -2.8653    0.0000 O   0  0  0  0  0  0  0  0  0  0  0  0
    4.6511   -3.6181    0.0000 C   0  0  0  0  0  0  0  0  0  0  0  0
   -1.8489   -1.3819    0.0000 F   0  0  0  0  0  0  0  0  0  0  0  0
   -7.0450   -1.3930    0.0000 O   0  0  0  0  0  0  0  0  0  0  0  0
   -9.8234   -0.3885    0.0000 C   0  0  0  0  0  0  0  0  0  0  0  0
  1  2  1  0
  2  3  1  0
  3  4  2  0
  3  5  1  0
  5  6  1  0
  6  7  2  0
  7  8  1  0
  8  9  2  0
  9 10  1  0
 10 11  2  0
 10 12  1  0
 12 13  1  0
 13 14  2  0
 14 15  1  0
 15 16  2  0
 16 17  1  0
 17 18  2  0
 17 19  1  0
 19 20  1  0
 20 21  2  0
 21 22  1  0
 22 23  2  0
 23 24  1  0
 24 25  2  0
 24 26  1  0
 26 27  1  0
 23 28  1  0
 28 29  1  0
 22 30  1  0
 30 31  1  0
 14 32  1  0
  7 33  1  0
  2 34  1  0
 33  2  1  0
 11  6  1  0
 18 13  1  0
 25 20  1  0
M  END
>  <BrandName>  (188) 


>  <Applicants>  (188) 
Rigel Pharmaceuticals

>  <CHEMBL_ID>  (188) 
nan

>  <Canonical_Smiles>  (188) 
CC1(C(=O)Nc2c(ccc(n2)Nc3c(cnc(n3)Nc4cc(c(c(c4)OC)OC)OC)F)O1)C

>  <Chirality>  (188) 
nan

>  <First_Approval>  (188) 
nan

>  <Phase>  (188) 
2.0

>  <SC_Patent>  (188) 
nan

>  <Synonyms>  (188) 
R-406 | R940406 | TAMATINIB

>  <Withdrawn>  (188) 
nan

>  <Indications>  (188) 
nan

>  <Type>  (188) 
1

>  <targets_id>  (188) 
P43405

>  <Inchi>  (188) 
InChI=1S/C22H23FN6O5/c1-22(2)20(30)28-19-13(34-22)6-7-16(27-19)26-18-12(23)10-24-21(29-18)25-11-8-14(31-3)17(33-5)15(9-11)32-4/h6-10H,1-5H3,(H3,24,25,26,27,28,29,30)

>  <stdInchikey>  (188) 
NHHQJBCNYHBUSI-UHFFFAOYSA-N

>  <csid>  (188) 
9388620

>  <Links>  (188) 
|http://www.chemspider.com/Chemical-Structure.9388620.html|https://www.ebi.ac.uk/chembldb/compound/inspect/CHEMBL475251|https://pubchem.ncbi.nlm.nih.gov/compound/11213558|https://go.drugbank.com/drugs/DB07159|https://www.rcsb.org/ligand/585|https://www.ebi.ac.uk/pdbe-srv/pdbechem/chemicalCompound/show/585|https://www.guidetopharmacology.org/GRAC/LigandDisplayForward?5706|https://zinc15.docking.org/substances/ZINC000006745792|https://precision.fda.gov/uniisearch/srs/unii/RC3A285J2G|https://www.bindingdb.org/bind/chemsearch/marvin/MolStructure.jsp?monomerid=60665

>  <LinkName>  (188) 
|ChemSpider|ChEMBL|PubChem|DrugBank|RCSB|PDBe|Guide to Pharmacology|ZINC|FDA SRS|BindingDB

>  <lig_pdb_ID>  (188) 
585

>  <pdb_IDs>  (188) 
3fqs 3piy

>  <indicationDB>  (188) 


>  <uniprotId>  (188) 


>  <indicationG2P>  (188) 
None

>  <MW>  (188) 
470.2

>  <HBA>  (188) 
10

>  <HBD>  (188) 
3

>  <NRB>  (188) 
7

>  <TPSA>  (188) 
128.8

>  <LogP>  (188) 
3.6

>  <RoF>  (188) 
0

>  <Melting point>  (188) 
nan

>  <Targets>  (188) 
SYK

>  <Kinase families>  (188) 
Tyr

>  <FDA_approved>  (188) 


$$$$
Ningetinib
     RDKit          2D

 41 45  0  0  0  0  0  0  0  0999 V2000
   -5.2884   -2.9213    0.0000 C   0  0  0  0  0  0  0  0  0  0  0  0
   -6.1066   -1.6641    0.0000 C   0  0  0  0  0  0  0  0  0  0  0  0
   -5.5704   -0.2632    0.0000 C   0  0  0  0  0  0  0  0  0  0  0  0
   -6.7371    0.6796    0.0000 C   0  0  0  0  0  0  0  0  0  0  0  0
   -6.6600    2.1776    0.0000 O   0  0  0  0  0  0  0  0  0  0  0  0
   -7.9943   -0.1386    0.0000 N   0  0  0  0  0  0  0  0  0  0  0  0
   -7.6046   -1.5871    0.0000 N   0  0  0  0  0  0  0  0  0  0  0  0
   -8.5474   -2.7537    0.0000 C   0  0  0  0  0  0  0  0  0  0  0  0
   -9.3952    0.3976    0.0000 C   0  0  0  0  0  0  0  0  0  0  0  0
   -9.6313    1.8789    0.0000 C   0  0  0  0  0  0  0  0  0  0  0  0
  -11.0322    2.4151    0.0000 C   0  0  0  0  0  0  0  0  0  0  0  0
  -12.1970    1.4700    0.0000 C   0  0  0  0  0  0  0  0  0  0  0  0
  -11.9608   -0.0113    0.0000 C   0  0  0  0  0  0  0  0  0  0  0  0
  -10.5599   -0.5475    0.0000 C   0  0  0  0  0  0  0  0  0  0  0  0
   -4.1219    0.1264    0.0000 C   0  0  0  0  0  0  0  0  0  0  0  0
   -3.7351    1.5757    0.0000 O   0  0  0  0  0  0  0  0  0  0  0  0
   -3.0602   -0.9332    0.0000 N   0  0  0  0  0  0  0  0  0  0  0  0
   -1.6117   -0.5435    0.0000 C   0  0  0  0  0  0  0  0  0  0  0  0
   -0.5500   -1.6032    0.0000 C   0  0  0  0  0  0  0  0  0  0  0  0
    0.8985   -1.2135    0.0000 C   0  0  0  0  0  0  0  0  0  0  0  0
    1.2853    0.2358    0.0000 C   0  0  0  0  0  0  0  0  0  0  0  0
    0.2236    1.2954    0.0000 C   0  0  0  0  0  0  0  0  0  0  0  0
   -1.2249    0.9057    0.0000 C   0  0  0  0  0  0  0  0  0  0  0  0
    0.6104    2.7446    0.0000 F   0  0  0  0  0  0  0  0  0  0  0  0
    2.7338    0.6254    0.0000 O   0  0  0  0  0  0  0  0  0  0  0  0
    3.7955   -0.4342    0.0000 C   0  0  0  0  0  0  0  0  0  0  0  0
    3.4087   -1.8835    0.0000 C   0  0  0  0  0  0  0  0  0  0  0  0
    4.4704   -2.9431    0.0000 C   0  0  0  0  0  0  0  0  0  0  0  0
    5.9189   -2.5535    0.0000 N   0  0  0  0  0  0  0  0  0  0  0  0
    6.3057   -1.1042    0.0000 C   0  0  0  0  0  0  0  0  0  0  0  0
    5.2440   -0.0446    0.0000 C   0  0  0  0  0  0  0  0  0  0  0  0
    5.6308    1.4047    0.0000 C   0  0  0  0  0  0  0  0  0  0  0  0
    7.0793    1.7943    0.0000 C   0  0  0  0  0  0  0  0  0  0  0  0
    8.1410    0.7347    0.0000 C   0  0  0  0  0  0  0  0  0  0  0  0
    7.7542   -0.7145    0.0000 C   0  0  0  0  0  0  0  0  0  0  0  0
    9.5896    1.1244    0.0000 O   0  0  0  0  0  0  0  0  0  0  0  0
   10.6513    0.0648    0.0000 C   0  0  0  0  0  0  0  0  0  0  0  0
   12.0998    0.4544    0.0000 C   0  0  0  0  0  0  0  0  0  0  0  0
   11.7101    1.9029    0.0000 C   0  0  0  0  0  0  0  0  0  0  0  0
   12.4894   -0.9941    0.0000 C   0  0  0  0  0  0  0  0  0  0  0  0
   13.5483    0.8441    0.0000 O   0  0  0  0  0  0  0  0  0  0  0  0
  1  2  1  0
  2  3  2  0
  3  4  1  0
  4  5  2  0
  4  6  1  0
  6  7  1  0
  7  8  1  0
  6  9  1  0
  9 10  2  0
 10 11  1  0
 11 12  2  0
 12 13  1  0
 13 14  2  0
  3 15  1  0
 15 16  2  0
 15 17  1  0
 17 18  1  0
 18 19  2  0
 19 20  1  0
 20 21  2  0
 21 22  1  0
 22 23  2  0
 22 24  1  0
 21 25  1  0
 25 26  1  0
 26 27  2  0
 27 28  1  0
 28 29  2  0
 29 30  1  0
 30 31  2  0
 31 32  1  0
 32 33  2  0
 33 34  1  0
 34 35  2  0
 34 36  1  0
 36 37  1  0
 37 38  1  0
 38 39  1  0
 38 40  1  0
 38 41  1  0
  7  2  1  0
 14  9  1  0
 23 18  1  0
 31 26  1  0
 35 30  1  0
M  END
>  <BrandName>  (189) 


>  <Applicants>  (189) 
HEC Pharm

>  <CHEMBL_ID>  (189) 
CHEMBL3984441

>  <Canonical_Smiles>  (189) 
Cc1c(c(=O)n(n1C)c2ccccc2)C(=O)Nc3ccc(c(c3)F)Oc4ccnc5c4ccc(c5)OCC(C)(C)O

>  <Chirality>  (189) 
Achiral Molecule

>  <First_Approval>  (189) 
nan

>  <Phase>  (189) 
2.0

>  <SC_Patent>  (189) 
nan

>  <Synonyms>  (189) 
CT-053 FREE BASE | CT-053-PTSA FREE BASE | CT053PTSA FREE BASE | NINGETINIB

>  <Withdrawn>  (189) 
{''}

>  <Indications>  (189) 
Ningetinib, also known as CT-053 or DE-120, is a VEGF and PDGF inhibitor potentially for the treatment of wet age-related macular degeneration.

>  <Type>  (189) 
nan

>  <targets_id>  (189) 
nan

>  <Inchi>  (189) 
InChI=1S/C31H29FN4O5/c1-19-28(30(38)36(35(19)4)21-8-6-5-7-9-21)29(37)34-20-10-13-27(24(32)16-20)41-26-14-15-33-25-17-22(11-12-23(25)26)40-18-31(2,3)39/h5-17,39H,18H2,1-4H3,(H,34,37)

>  <stdInchikey>  (189) 
VQYYQSZNRVQLIS-UHFFFAOYSA-N

>  <csid>  (189) 
61719564

>  <Links>  (189) 
|http://www.chemspider.com/Chemical-Structure.61719564.html|https://www.ebi.ac.uk/chembldb/compound/inspect/CHEMBL3984441|https://pubchem.ncbi.nlm.nih.gov/compound/60165029|https://go.drugbank.com/drugs/DB16256|https://zinc15.docking.org/substances/ZINC000143426755|https://precision.fda.gov/uniisearch/srs/unii/PW3Q92Z6A4|https://www.bindingdb.org/bind/chemsearch/marvin/MolStructure.jsp?monomerid=180270

>  <LinkName>  (189) 
|ChemSpider|ChEMBL|PubChem|DrugBank|ZINC|FDA SRS|BindingDB

>  <lig_pdb_ID>  (189) 


>  <pdb_IDs>  (189) 


>  <indicationDB>  (189) 


>  <uniprotId>  (189) 


>  <indicationG2P>  (189) 


>  <MW>  (189) 
556.2

>  <HBA>  (189) 
8

>  <HBD>  (189) 
2

>  <NRB>  (189) 
8

>  <TPSA>  (189) 
107.6

>  <LogP>  (189) 
5.4

>  <RoF>  (189) 
2

>  <Melting point>  (189) 
nan

>  <Targets>  (189) 
nan

>  <Kinase families>  (189) 


>  <FDA_approved>  (189) 


$$$$
Plogosertib
     RDKit          2D

 45 51  0  0  0  0  0  0  0  0999 V2000
   -0.3580    6.5767    0.0000 C   0  0  0  0  0  0  0  0  0  0  0  0
   -1.4012    5.4988    0.0000 O   0  0  0  0  0  0  0  0  0  0  0  0
   -0.9893    4.0565    0.0000 C   0  0  0  0  0  0  0  0  0  0  0  0
    0.4658    3.6920    0.0000 C   0  0  0  0  0  0  0  0  0  0  0  0
    0.8777    2.2496    0.0000 C   0  0  0  0  0  0  0  0  0  0  0  0
    2.3327    1.8852    0.0000 C   0  0  0  0  0  0  0  0  0  0  0  0
    3.3759    2.9631    0.0000 O   0  0  0  0  0  0  0  0  0  0  0  0
    2.7446    0.4428    0.0000 N   0  0  0  0  0  0  0  0  0  0  0  0
    4.1996    0.0784    0.0000 C   0  0  0  0  0  0  0  0  0  0  0  0
    4.6115   -1.3640    0.0000 C   0  0  0  0  0  0  0  0  0  0  0  0
    6.0666   -1.7284    0.0000 C   0  0  0  0  0  0  0  0  0  0  0  0
    7.1097   -0.6505    0.0000 C   0  0  0  0  0  0  0  0  0  0  0  0
    8.5648   -1.0150    0.0000 N   0  0  0  0  0  0  0  0  0  0  0  0
    8.9767   -2.4573    0.0000 C   0  0  0  0  0  0  0  0  0  0  0  0
   10.4317   -2.8218    0.0000 C   0  0  0  0  0  0  0  0  0  0  0  0
   11.4749   -1.7439    0.0000 N   0  0  0  0  0  0  0  0  0  0  0  0
   12.9299   -2.1084    0.0000 C   0  0  0  0  0  0  0  0  0  0  0  0
   11.0630   -0.3016    0.0000 C   0  0  0  0  0  0  0  0  0  0  0  0
    9.6080    0.0629    0.0000 C   0  0  0  0  0  0  0  0  0  0  0  0
    6.6979    0.7918    0.0000 C   0  0  0  0  0  0  0  0  0  0  0  0
    5.2428    1.1563    0.0000 C   0  0  0  0  0  0  0  0  0  0  0  0
   -0.1655    1.1718    0.0000 C   0  0  0  0  0  0  0  0  0  0  0  0
   -1.6205    1.5362    0.0000 C   0  0  0  0  0  0  0  0  0  0  0  0
   -2.0324    2.9786    0.0000 C   0  0  0  0  0  0  0  0  0  0  0  0
   -3.4875    3.3430    0.0000 N   0  0  0  0  0  0  0  0  0  0  0  0
   -4.5306    2.2652    0.0000 C   0  0  0  0  0  0  0  0  0  0  0  0
   -5.9857    2.6296    0.0000 N   0  0  0  0  0  0  0  0  0  0  0  0
   -7.0289    1.5517    0.0000 C   0  0  0  0  0  0  0  0  0  0  0  0
   -6.6170    0.1094    0.0000 C   0  0  0  0  0  0  0  0  0  0  0  0
   -5.1619   -0.2551    0.0000 C   0  0  0  0  0  0  0  0  0  0  0  0
   -4.1188    0.8228    0.0000 N   0  0  0  0  0  0  0  0  0  0  0  0
   -4.5397   -1.6199    0.0000 N   0  0  0  0  0  0  0  0  0  0  0  0
   -3.0400   -1.6514    0.0000 C   0  0  0  0  0  0  0  0  0  0  0  0
   -2.1330   -0.4567    0.0000 C   0  0  0  0  0  0  0  0  0  0  0  0
   -0.7165   -0.9502    0.0000 C   0  0  0  0  0  0  0  0  0  0  0  0
   -0.7480   -2.4498    0.0000 C   0  0  0  0  0  0  0  0  0  0  0  0
   -2.1840   -2.8832    0.0000 C   0  0  0  0  0  0  0  0  0  0  0  0
   -5.2188   -2.9574    0.0000 C   0  0  0  0  0  0  0  0  0  0  0  0
   -6.6878   -3.2603    0.0000 C   0  0  0  0  0  0  0  0  0  0  0  0
   -6.2760   -4.7027    0.0000 C   0  0  0  0  0  0  0  0  0  0  0  0
   -7.7310   -4.3382    0.0000 C   0  0  0  0  0  0  0  0  0  0  0  0
   -7.8407   -2.3006    0.0000 C   0  0  0  0  0  0  0  0  0  0  0  0
   -9.2055   -2.9229    0.0000 O   0  0  0  0  0  0  0  0  0  0  0  0
   -7.8091   -0.8010    0.0000 N   0  0  0  0  0  0  0  0  0  0  0  0
   -9.1466   -0.1219    0.0000 C   0  0  0  0  0  0  0  0  0  0  0  0
  1  2  1  0
  2  3  1  0
  3  4  2  0
  4  5  1  0
  5  6  1  0
  6  7  2  0
  6  8  1  0
  9  8  1  6
  9 10  1  0
 10 11  1  0
 11 12  1  0
 12 13  1  1
 13 14  1  0
 14 15  1  0
 15 16  1  0
 16 17  1  0
 16 18  1  0
 18 19  1  0
 12 20  1  0
 20 21  1  0
  5 22  2  0
 22 23  1  0
 23 24  2  0
 24 25  1  0
 25 26  1  0
 26 27  2  0
 27 28  1  0
 28 29  2  0
 29 30  1  0
 30 31  2  0
 30 32  1  0
 32 33  1  0
 33 34  1  0
 34 35  1  0
 35 36  1  0
 36 37  1  0
 32 38  1  0
 38 39  1  0
 39 40  1  0
 40 41  1  0
 39 42  1  0
 42 43  2  0
 42 44  1  0
 44 45  1  0
 24  3  1  0
 31 26  1  0
 37 33  1  0
 41 39  1  0
 21  9  1  0
 44 29  1  0
 19 13  1  0
M  END
>  <BrandName>  (190) 


>  <Applicants>  (190) 
('Cyclacel pharmaceutical',)

>  <CHEMBL_ID>  (190) 
CHEMBL5314436

>  <Canonical_Smiles>  (190) 
COc1cc(C(=O)N[C@H]2CC[C@H](N3CCN(C)CC3)CC2)ccc1Nc1ncc2c(n1)N(C1CCCC1)CC1(CC1)C(=O)N2C

>  <Chirality>  (190) 
Unknown

>  <First_Approval>  (190) 
nan

>  <Phase>  (190) 
2.0

>  <SC_Patent>  (190) 
nan

>  <Synonyms>  (190) 
PLOGOSERTIB

>  <Withdrawn>  (190) 
nan

>  <Indications>  (190) 
nan

>  <Type>  (190) 
nan

>  <targets_id>  (190) 
nan

>  <Inchi>  (190) 
InChI=1S/C34H48N8O3/c1-39-16-18-41(19-17-39)25-11-9-24(10-12-25)36-31(43)23-8-13-27(29(20-23)45-3)37-33-35-21-28-30(38-33)42(26-6-4-5-7-26)22-34(14-15-34)32(44)40(28)2/h8,13,20-21,24-26H,4-7,9-12,14-19,22H2,1-3H3,(H,36,43)(H,35,37,38)/t24-,25-

>  <stdInchikey>  (190) 
UFNLNMWVOMFWGS-SOAUALDESA-N

>  <csid>  (190) 
128922330

>  <Links>  (190) 
|http://www.chemspider.com/Chemical-Structure.128922330.html|https://www.ebi.ac.uk/chembldb/compound/inspect/CHEMBL5314436

>  <LinkName>  (190) 
|ChemSpider|ChEMBL

>  <lig_pdb_ID>  (190) 


>  <pdb_IDs>  (190) 


>  <indicationDB>  (190) 


>  <uniprotId>  (190) 


>  <indicationG2P>  (190) 


>  <MW>  (190) 
616.4

>  <HBA>  (190) 
9

>  <HBD>  (190) 
2

>  <NRB>  (190) 
7

>  <TPSA>  (190) 
106.2

>  <LogP>  (190) 
4.0

>  <RoF>  (190) 
1

>  <Melting point>  (190) 
nan

>  <Targets>  (190) 
nan

>  <Kinase families>  (190) 


>  <FDA_approved>  (190) 


$$$$
Rabusertib
     RDKit          2D

 27 29  0  0  0  0  0  0  0  0999 V2000
   -2.5903   -5.1727    0.0000 C   0  0  0  0  0  0  0  0  0  0  0  0
   -1.8525   -3.8666    0.0000 C   0  0  0  0  0  0  0  0  0  0  0  0
   -2.6147   -2.5747    0.0000 C   0  0  0  0  0  0  0  0  0  0  0  0
   -1.8770   -1.2687    0.0000 C   0  0  0  0  0  0  0  0  0  0  0  0
   -0.3771   -1.2545    0.0000 C   0  0  0  0  0  0  0  0  0  0  0  0
    0.3851   -2.5464    0.0000 C   0  0  0  0  0  0  0  0  0  0  0  0
   -0.3526   -3.8525    0.0000 C   0  0  0  0  0  0  0  0  0  0  0  0
    0.4096   -5.1444    0.0000 Br  0  0  0  0  0  0  0  0  0  0  0  0
    0.3606    0.0515    0.0000 N   0  0  0  0  0  0  0  0  0  0  0  0
    1.8606    0.0656    0.0000 C   0  0  0  0  0  0  0  0  0  0  0  0
    2.6228   -1.2263    0.0000 O   0  0  0  0  0  0  0  0  0  0  0  0
    2.5983    1.3717    0.0000 N   0  0  0  0  0  0  0  0  0  0  0  0
    4.0982    1.3858    0.0000 C   0  0  0  0  0  0  0  0  0  0  0  0
    4.8604    0.0939    0.0000 C   0  0  0  0  0  0  0  0  0  0  0  0
    6.3604    0.1081    0.0000 N   0  0  0  0  0  0  0  0  0  0  0  0
    7.0981    1.4141    0.0000 C   0  0  0  0  0  0  0  0  0  0  0  0
    6.3359    2.7060    0.0000 C   0  0  0  0  0  0  0  0  0  0  0  0
    4.8360    2.6919    0.0000 N   0  0  0  0  0  0  0  0  0  0  0  0
    8.5980    1.4282    0.0000 C   0  0  0  0  0  0  0  0  0  0  0  0
   -2.6392    0.0232    0.0000 O   0  0  0  0  0  0  0  0  0  0  0  0
   -4.1392    0.0091    0.0000 C   0  0  0  0  0  0  0  0  0  0  0  0
   -4.9014    1.3010    0.0000 C   0  0  0  0  0  0  0  0  0  0  0  0
   -4.1636    2.6071    0.0000 C   0  0  0  0  0  0  0  0  0  0  0  0
   -4.9258    3.8990    0.0000 N   0  0  0  0  0  0  0  0  0  0  0  0
   -6.4258    3.8848    0.0000 C   0  0  0  0  0  0  0  0  0  0  0  0
   -7.1635    2.5788    0.0000 C   0  0  0  0  0  0  0  0  0  0  0  0
   -6.4013    1.2869    0.0000 O   0  0  0  0  0  0  0  0  0  0  0  0
  1  2  1  0
  2  3  2  0
  3  4  1  0
  4  5  2  0
  5  6  1  0
  6  7  2  0
  7  8  1  0
  5  9  1  0
  9 10  1  0
 10 11  2  0
 10 12  1  0
 12 13  1  0
 13 14  2  0
 14 15  1  0
 15 16  2  0
 16 17  1  0
 17 18  2  0
 16 19  1  0
  4 20  1  0
 20 21  1  0
 22 21  1  1
 22 23  1  0
 23 24  1  0
 24 25  1  0
 25 26  1  0
 26 27  1  0
  7  2  1  0
 18 13  1  0
 27 22  1  0
M  END
>  <BrandName>  (191) 


>  <Applicants>  (191) 
Eli Lilly

>  <CHEMBL_ID>  (191) 
CHEMBL3039517

>  <Canonical_Smiles>  (191) 
Cc1cc(c(cc1Br)NC(=O)Nc2cnc(cn2)C)OC[C@@H]3CNCCO3

>  <Chirality>  (191) 
Single Stereoisomer

>  <First_Approval>  (191) 
nan

>  <Phase>  (191) 
2.0

>  <SC_Patent>  (191) 
nan

>  <Synonyms>  (191) 
IC-83 | LY-2603618 | LY2603618 | RABUSERTIB

>  <Withdrawn>  (191) 
nan

>  <Indications>  (191) 
nan

>  <Type>  (191) 
nan

>  <targets_id>  (191) 
O14757

>  <Inchi>  (191) 
InChI=1S/C18H22BrN5O3/c1-11-5-16(27-10-13-8-20-3-4-26-13)15(6-14(11)19)23-18(25)24-17-9-21-12(2)7-22-17/h5-7,9,13,20H,3-4,8,10H2,1-2H3,(H2,22,23,24,25)/t13-/m0/s1

>  <stdInchikey>  (191) 
SYYBDNPGDKKJDU-ZDUSSCGKSA-N

>  <csid>  (191) 
10130131

>  <Links>  (191) 
|http://www.chemspider.com/Chemical-Structure.10130131.html|https://www.ebi.ac.uk/chembldb/compound/inspect/CHEMBL3039517|https://pubchem.ncbi.nlm.nih.gov/compound/11955855|https://go.drugbank.com/drugs/DB11662|https://www.guidetopharmacology.org/GRAC/LigandDisplayForward?7960|https://zinc15.docking.org/substances/ZINC000070466463|https://precision.fda.gov/uniisearch/srs/unii/3S9L1NU6U7|https://www.bindingdb.org/bind/chemsearch/marvin/MolStructure.jsp?monomerid=50524309

>  <LinkName>  (191) 
|ChemSpider|ChEMBL|PubChem|DrugBank|Guide to Pharmacology|ZINC|FDA SRS|BindingDB

>  <lig_pdb_ID>  (191) 


>  <pdb_IDs>  (191) 


>  <indicationDB>  (191) 


>  <uniprotId>  (191) 


>  <indicationG2P>  (191) 
None

>  <MW>  (191) 
435.1

>  <HBA>  (191) 
6

>  <HBD>  (191) 
3

>  <NRB>  (191) 
5

>  <TPSA>  (191) 
97.4

>  <LogP>  (191) 
2.9

>  <RoF>  (191) 
0

>  <Melting point>  (191) 
nan

>  <Targets>  (191) 
CHEK1

>  <Kinase families>  (191) 
CAMK

>  <FDA_approved>  (191) 


$$$$
Elzovantinib
     RDKit          2D

 30 33  0  0  0  0  0  0  0  0999 V2000
    0.7119   -4.6810    0.0000 C   0  0  0  0  0  0  0  0  0  0  0  0
    1.5378   -3.4289    0.0000 C   0  0  0  0  0  0  0  0  0  0  0  0
    0.8663   -2.0875    0.0000 N   0  0  0  0  0  0  0  0  0  0  0  0
    2.0080   -1.1146    0.0000 C   0  0  0  0  0  0  0  0  0  0  0  0
    2.5667    0.2775    0.0000 C   0  0  0  0  0  0  0  0  0  0  0  0
    2.4146    1.7697    0.0000 C   0  0  0  0  0  0  0  0  0  0  0  0
    3.6308    2.6476    0.0000 C   0  0  0  0  0  0  0  0  0  0  0  0
    4.9992    2.0333    0.0000 C   0  0  0  0  0  0  0  0  0  0  0  0
    5.1514    0.5410    0.0000 C   0  0  0  0  0  0  0  0  0  0  0  0
    6.5198   -0.0733    0.0000 F   0  0  0  0  0  0  0  0  0  0  0  0
    3.9352   -0.3369    0.0000 C   0  0  0  0  0  0  0  0  0  0  0  0
    4.0873   -1.8292    0.0000 C   0  0  0  0  0  0  0  0  0  0  0  0
    4.2395   -3.3214    0.0000 N   0  0  0  0  0  0  0  0  0  0  0  0
    1.5863    3.0203    0.0000 O   0  0  0  0  0  0  0  0  0  0  0  0
    0.2718    3.7428    0.0000 C   0  0  0  0  0  0  0  0  0  0  0  0
    0.6587    5.1920    0.0000 C   0  0  0  0  0  0  0  0  0  0  0  0
   -1.2279    3.7716    0.0000 C   0  0  0  0  0  0  0  0  0  0  0  0
   -2.5693    3.1002    0.0000 N   0  0  0  0  0  0  0  0  0  0  0  0
   -3.4449    1.8823    0.0000 C   0  0  0  0  0  0  0  0  0  0  0  0
   -4.8370    2.4410    0.0000 O   0  0  0  0  0  0  0  0  0  0  0  0
   -3.6543    0.3970    0.0000 C   0  0  0  0  0  0  0  0  0  0  0  0
   -5.0814   -0.0648    0.0000 C   0  0  0  0  0  0  0  0  0  0  0  0
   -6.2939    0.8183    0.0000 N   0  0  0  0  0  0  0  0  0  0  0  0
   -5.0832   -1.5648    0.0000 N   0  0  0  0  0  0  0  0  0  0  0  0
   -3.6572   -2.0301    0.0000 N   0  0  0  0  0  0  0  0  0  0  0  0
   -3.0488   -3.4011    0.0000 C   0  0  0  0  0  0  0  0  0  0  0  0
   -1.5572   -3.5597    0.0000 C   0  0  0  0  0  0  0  0  0  0  0  0
   -0.6740   -2.3473    0.0000 C   0  0  0  0  0  0  0  0  0  0  0  0
   -1.2825   -0.9762    0.0000 N   0  0  0  0  0  0  0  0  0  0  0  0
   -2.7741   -0.8176    0.0000 C   0  0  0  0  0  0  0  0  0  0  0  0
  1  2  1  0
  2  3  1  0
  3  4  1  0
  4  5  1  0
  5  6  2  0
  6  7  1  0
  7  8  2  0
  8  9  1  0
  9 10  1  0
  9 11  2  0
 11 12  1  0
 12 13  3  0
  6 14  1  0
 14 15  1  0
 15 16  1  6
 15 17  1  0
 17 18  1  0
 18 19  1  0
 19 20  2  0
 19 21  1  0
 21 22  1  0
 22 23  1  0
 22 24  2  0
 24 25  1  0
 25 26  1  0
 26 27  2  0
 27 28  1  0
 28 29  2  0
 29 30  1  0
 28  3  1  0
 11  5  1  0
 30 21  2  0
 30 25  1  0
M  END
>  <BrandName>  (192) 


>  <Applicants>  (192) 
TP Therapeutics

>  <CHEMBL_ID>  (192) 
CHEMBL5095061

>  <Canonical_Smiles>  (192) 
CCN1Cc2c(ccc(F)c2C#N)O[C@@H](C)CNC(=O)c2c(N)nn3ccc1nc23

>  <Chirality>  (192) 
Single Stereoisomer

>  <First_Approval>  (192) 
nan

>  <Phase>  (192) 
2.0

>  <SC_Patent>  (192) 
nan

>  <Synonyms>  (192) 
ELZOVANTINIB | TPX-0022 | TPX0022

>  <Withdrawn>  (192) 
nan

>  <Indications>  (192) 
nan

>  <Type>  (192) 
nan

>  <targets_id>  (192) 
nan

>  <Inchi>  (192) 
InChI=1S/C20H20FN7O2/c1-3-27-10-13-12(8-22)14(21)4-5-15(13)30-11(2)9-24-20(29)17-18(23)26-28-7-6-16(27)25-19(17)28/h4-7,11H,3,9-10H2,1-2H3,(H2,23,26)(H,24,29)/t11-/m0/s1

>  <stdInchikey>  (192) 
UUDPUQDMSHQSKH-NSHDSACASA-N

>  <csid>  (192) 
72380105

>  <Links>  (192) 
|http://www.chemspider.com/Chemical-Structure.72380105.html|https://www.ebi.ac.uk/chembldb/compound/inspect/CHEMBL5095061|https://pubchem.ncbi.nlm.nih.gov/compound/137455315|https://www.rcsb.org/ligand/IYC|https://www.ebi.ac.uk/pdbe-srv/pdbechem/chemicalCompound/show/IYC

>  <LinkName>  (192) 
|ChemSpider|ChEMBL|PubChem|RCSB|PDBe

>  <lig_pdb_ID>  (192) 
IYC

>  <pdb_IDs>  (192) 
8k78 8k79

>  <indicationDB>  (192) 


>  <uniprotId>  (192) 


>  <indicationG2P>  (192) 


>  <MW>  (192) 
409.2

>  <HBA>  (192) 
8

>  <HBD>  (192) 
2

>  <NRB>  (192) 
1

>  <TPSA>  (192) 
121.6

>  <LogP>  (192) 
1.9

>  <RoF>  (192) 
0

>  <Melting point>  (192) 
nan

>  <Targets>  (192) 
nan

>  <Kinase families>  (192) 


>  <FDA_approved>  (192) 


$$$$
Paltimatrectinib
     RDKit          2D

 32 37  0  0  0  0  0  0  0  0999 V2000
   -8.2439    1.8327    0.0000 C   0  0  0  0  0  0  0  0  0  0  0  0
   -6.7441    1.8129    0.0000 C   0  0  0  0  0  0  0  0  0  0  0  0
   -6.7242    3.3127    0.0000 O   0  0  0  0  0  0  0  0  0  0  0  0
   -5.2442    1.7930    0.0000 C   0  0  0  0  0  0  0  0  0  0  0  0
   -5.2641    0.2931    0.0000 C   0  0  0  0  0  0  0  0  0  0  0  0
   -5.2839   -1.2067    0.0000 N   0  0  0  0  0  0  0  0  0  0  0  0
   -3.7642    0.2733    0.0000 C   0  0  0  0  0  0  0  0  0  0  0  0
   -3.0314   -1.0356    0.0000 C   0  0  0  0  0  0  0  0  0  0  0  0
   -1.5316   -1.0554    0.0000 C   0  0  0  0  0  0  0  0  0  0  0  0
   -0.7645    0.2336    0.0000 C   0  0  0  0  0  0  0  0  0  0  0  0
    0.7354    0.2137    0.0000 C   0  0  0  0  0  0  0  0  0  0  0  0
    1.6331    1.4155    0.0000 N   0  0  0  0  0  0  0  0  0  0  0  0
    3.0534    0.9331    0.0000 C   0  0  0  0  0  0  0  0  0  0  0  0
    3.0335   -0.5668    0.0000 N   0  0  0  0  0  0  0  0  0  0  0  0
    1.6010   -1.0114    0.0000 C   0  0  0  0  0  0  0  0  0  0  0  0
    1.1186   -2.4317    0.0000 C   0  0  0  0  0  0  0  0  0  0  0  0
   -0.3526   -2.7241    0.0000 C   0  0  0  0  0  0  0  0  0  0  0  0
   -0.8350   -4.1444    0.0000 C   0  0  0  0  0  0  0  0  0  0  0  0
    0.1539   -5.2723    0.0000 C   0  0  0  0  0  0  0  0  0  0  0  0
    1.6251   -4.9799    0.0000 C   0  0  0  0  0  0  0  0  0  0  0  0
    2.1074   -3.5596    0.0000 C   0  0  0  0  0  0  0  0  0  0  0  0
    4.3225   -1.3339    0.0000 C   0  0  0  0  0  0  0  0  0  0  0  0
    5.6314   -0.6011    0.0000 O   0  0  0  0  0  0  0  0  0  0  0  0
    5.6512    0.8987    0.0000 C   0  0  0  0  0  0  0  0  0  0  0  0
    6.9601    1.6315    0.0000 C   0  0  0  0  0  0  0  0  0  0  0  0
    6.9800    3.1313    0.0000 C   0  0  0  0  0  0  0  0  0  0  0  0
    5.6910    3.8985    0.0000 N   0  0  0  0  0  0  0  0  0  0  0  0
    4.3821    3.1657    0.0000 C   0  0  0  0  0  0  0  0  0  0  0  0
    4.3623    1.6659    0.0000 C   0  0  0  0  0  0  0  0  0  0  0  0
   -1.4972    1.5424    0.0000 C   0  0  0  0  0  0  0  0  0  0  0  0
   -2.9971    1.5623    0.0000 C   0  0  0  0  0  0  0  0  0  0  0  0
   -6.7639    0.3130    0.0000 C   0  0  0  0  0  0  0  0  0  0  0  0
  2  1  1  6
  2  3  1  0
  2  4  1  0
  4  5  1  0
  5  6  1  6
  5  7  1  0
  7  8  2  0
  8  9  1  0
  9 10  2  0
 10 11  1  0
 11 12  1  0
 12 13  2  0
 13 14  1  0
 14 15  1  0
 15 16  1  0
 16 17  2  0
 17 18  1  0
 18 19  2  0
 19 20  1  0
 20 21  2  0
 14 22  1  0
 22 23  1  0
 23 24  1  0
 24 25  2  0
 25 26  1  0
 26 27  2  0
 27 28  1  0
 28 29  2  0
 10 30  1  0
 30 31  2  0
  5 32  1  0
 32  2  1  0
 31  7  1  0
 15 11  2  0
 21 16  1  0
 29 24  1  0
 29 13  1  0
M  END
>  <BrandName>  (193) 


>  <Applicants>  (193) 
Pyramid Biosciences

>  <CHEMBL_ID>  (193) 
CHEMBL5095076

>  <Canonical_Smiles>  (193) 
C[C@]1(O)C[C@@](N)(c2ccc(-c3nc4n(c3-c3ccccc3)COc3ccncc3-4)cc2)C1

>  <Chirality>  (193) 
Single Stereoisomer

>  <First_Approval>  (193) 
nan

>  <Phase>  (193) 
2.0

>  <SC_Patent>  (193) 
nan

>  <Synonyms>  (193) 
PPI-5278|PIFUSERTIB|PBI-200|TAS 117|TAS-117

>  <Withdrawn>  (193) 
nan

>  <Indications>  (193) 
nan

>  <Type>  (193) 
nan

>  <targets_id>  (193) 
nan

>  <Inchi>  (193) 
InChI=1S/C20H15F5N6/c21-13-3-4-15(22)14(8-13)16-2-1-6-29(16)18-5-7-30-19(28-18)17(10-27-30)31-11-12(9-26-31)20(23,24)25/h3-5,7-11,16H,1-2,6H2/t16-/m1/s1

>  <stdInchikey>  (193) 
AIFGVDXMHWGOGJ-DIVCQZSQSA-N

>  <csid>  (193) 
64854605

>  <Links>  (193) 
|http://www.chemspider.com/Chemical-Structure.64854605.html

>  <LinkName>  (193) 
|ChemSpider

>  <lig_pdb_ID>  (193) 


>  <pdb_IDs>  (193) 


>  <indicationDB>  (193) 


>  <uniprotId>  (193) 


>  <indicationG2P>  (193) 


>  <MW>  (193) 
424.2

>  <HBA>  (193) 
6

>  <HBD>  (193) 
2

>  <NRB>  (193) 
3

>  <TPSA>  (193) 
86.2

>  <LogP>  (193) 
4.3

>  <RoF>  (193) 
0

>  <Melting point>  (193) 
nan

>  <Targets>  (193) 
nan

>  <Kinase families>  (193) 


>  <FDA_approved>  (193) 


$$$$
Derazantinib
     RDKit          2D

 35 39  0  0  0  0  0  0  0  0999 V2000
  -14.4304    0.1382    0.0000 C   0  0  0  0  0  0  0  0  0  0  0  0
  -13.0591    0.7462    0.0000 O   0  0  0  0  0  0  0  0  0  0  0  0
  -11.8469   -0.1373    0.0000 C   0  0  0  0  0  0  0  0  0  0  0  0
  -10.4757    0.4707    0.0000 C   0  0  0  0  0  0  0  0  0  0  0  0
   -9.2635   -0.4128    0.0000 N   0  0  0  0  0  0  0  0  0  0  0  0
   -7.8923    0.1952    0.0000 C   0  0  0  0  0  0  0  0  0  0  0  0
   -6.6801   -0.6883    0.0000 C   0  0  0  0  0  0  0  0  0  0  0  0
   -5.3088   -0.0803    0.0000 C   0  0  0  0  0  0  0  0  0  0  0  0
   -5.1498    1.4112    0.0000 C   0  0  0  0  0  0  0  0  0  0  0  0
   -3.7785    2.0192    0.0000 C   0  0  0  0  0  0  0  0  0  0  0  0
   -2.5663    1.1357    0.0000 C   0  0  0  0  0  0  0  0  0  0  0  0
   -2.7254   -0.3558    0.0000 C   0  0  0  0  0  0  0  0  0  0  0  0
   -4.0967   -0.9639    0.0000 C   0  0  0  0  0  0  0  0  0  0  0  0
   -1.5132   -1.2394    0.0000 N   0  0  0  0  0  0  0  0  0  0  0  0
   -0.1420   -0.6314    0.0000 C   0  0  0  0  0  0  0  0  0  0  0  0
    0.0171    0.8602    0.0000 N   0  0  0  0  0  0  0  0  0  0  0  0
    1.3883    1.4682    0.0000 C   0  0  0  0  0  0  0  0  0  0  0  0
    2.6005    0.5847    0.0000 C   0  0  0  0  0  0  0  0  0  0  0  0
    2.4414   -0.9069    0.0000 C   0  0  0  0  0  0  0  0  0  0  0  0
    1.0702   -1.5149    0.0000 N   0  0  0  0  0  0  0  0  0  0  0  0
    3.6536   -1.7904    0.0000 C   0  0  0  0  0  0  0  0  0  0  0  0
    3.4946   -3.2819    0.0000 C   0  0  0  0  0  0  0  0  0  0  0  0
    4.7067   -4.1655    0.0000 C   0  0  0  0  0  0  0  0  0  0  0  0
    6.0780   -3.5575    0.0000 C   0  0  0  0  0  0  0  0  0  0  0  0
    6.2370   -2.0659    0.0000 C   0  0  0  0  0  0  0  0  0  0  0  0
    5.0249   -1.1824    0.0000 C   0  0  0  0  0  0  0  0  0  0  0  0
    5.1839    0.3092    0.0000 C   0  0  0  0  0  0  0  0  0  0  0  0
    3.9718    1.1927    0.0000 C   0  0  0  0  0  0  0  0  0  0  0  0
    6.5552    0.9172    0.0000 C   0  0  0  0  0  0  0  0  0  0  0  0
    7.7674    0.0336    0.0000 C   0  0  0  0  0  0  0  0  0  0  0  0
    9.1386    0.6417    0.0000 C   0  0  0  0  0  0  0  0  0  0  0  0
    9.2977    2.1332    0.0000 C   0  0  0  0  0  0  0  0  0  0  0  0
    8.0855    3.0167    0.0000 C   0  0  0  0  0  0  0  0  0  0  0  0
    6.7143    2.4087    0.0000 C   0  0  0  0  0  0  0  0  0  0  0  0
    5.5021    3.2922    0.0000 F   0  0  0  0  0  0  0  0  0  0  0  0
  1  2  1  0
  2  3  1  0
  3  4  1  0
  4  5  1  0
  5  6  1  0
  6  7  1  0
  7  8  1  0
  8  9  2  0
  9 10  1  0
 10 11  2  0
 11 12  1  0
 12 13  2  0
 12 14  1  0
 14 15  1  0
 15 16  2  0
 16 17  1  0
 17 18  2  0
 18 19  1  0
 19 20  2  0
 19 21  1  0
 21 22  2  0
 22 23  1  0
 23 24  2  0
 24 25  1  0
 25 26  2  0
 26 27  1  0
 27 28  1  0
 27 29  1  1
 29 30  2  0
 30 31  1  0
 31 32  2  0
 32 33  1  0
 33 34  2  0
 34 35  1  0
 13  8  1  0
 20 15  1  0
 28 18  1  0
 26 21  1  0
 34 29  1  0
M  END
>  <BrandName>  (194) 


>  <Applicants>  (194) 
ArQule

>  <CHEMBL_ID>  (194) 
CHEMBL4297187

>  <Canonical_Smiles>  (194) 
COCCNCCc1cccc(c1)Nc2ncc3c(n2)-c4ccccc4[C@@H](C3)c5ccccc5F

>  <Chirality>  (194) 
Single Stereoisomer

>  <First_Approval>  (194) 
nan

>  <Phase>  (194) 
2.0

>  <SC_Patent>  (194) 
nan

>  <Synonyms>  (194) 
ARQ 087 | ARQ-087 | ARQ087 | DERAZANTINIB

>  <Withdrawn>  (194) 
nan

>  <Indications>  (194) 
Derazantinib (ARQ087) is an orally bioavailable, non-selective FGFR inhibitor being investigated for antineoplastic activity.

>  <Type>  (194) 
nan

>  <targets_id>  (194) 
nan

>  <Inchi>  (194) 
InChI=1S/C29H29FN4O/c1-35-16-15-31-14-13-20-7-6-8-22(17-20)33-29-32-19-21-18-26(24-10-4-5-12-27(24)30)23-9-2-3-11-25(23)28(21)34-29/h2-12,17,19,26,31H,13-16,18H2,1H3,(H,32,33,34)/t26-/m1/s1

>  <stdInchikey>  (194) 
KPJDVVCDVBFRMU-AREMUKBSSA-N

>  <csid>  (194) 
59718644

>  <Links>  (194) 
|http://www.chemspider.com/Chemical-Structure.59718644.html|https://www.ebi.ac.uk/chembldb/compound/inspect/CHEMBL4297187|https://pubchem.ncbi.nlm.nih.gov/compound/46834118|https://go.drugbank.com/drugs/DB14889|https://www.guidetopharmacology.org/GRAC/LigandDisplayForward?9785|https://precision.fda.gov/uniisearch/srs/unii/N9B0H171MJ

>  <LinkName>  (194) 
|ChemSpider|ChEMBL|PubChem|DrugBank|Guide to Pharmacology|FDA SRS

>  <lig_pdb_ID>  (194) 


>  <pdb_IDs>  (194) 


>  <indicationDB>  (194) 


>  <uniprotId>  (194) 


>  <indicationG2P>  (194) 
None

>  <MW>  (194) 
468.2

>  <HBA>  (194) 
5

>  <HBD>  (194) 
2

>  <NRB>  (194) 
9

>  <TPSA>  (194) 
59.1

>  <LogP>  (194) 
5.5

>  <RoF>  (194) 
1

>  <Melting point>  (194) 
nan

>  <Targets>  (194) 
nan

>  <Kinase families>  (194) 


>  <FDA_approved>  (194) 


$$$$
Tinengotinib
     RDKit          2D

 28 32  0  0  0  0  0  0  0  0999 V2000
   -5.4245   -2.3290    0.0000 C   0  0  0  0  0  0  0  0  0  0  0  0
   -4.0105   -2.8299    0.0000 C   0  0  0  0  0  0  0  0  0  0  0  0
   -3.5846   -4.2681    0.0000 N   0  0  0  0  0  0  0  0  0  0  0  0
   -2.0852   -4.3075    0.0000 N   0  0  0  0  0  0  0  0  0  0  0  0
   -1.5843   -2.8936    0.0000 C   0  0  0  0  0  0  0  0  0  0  0  0
   -0.1284   -2.5327    0.0000 N   0  0  0  0  0  0  0  0  0  0  0  0
    0.4972   -1.1694    0.0000 C   0  0  0  0  0  0  0  0  0  0  0  0
    1.9948   -1.2536    0.0000 C   0  0  0  0  0  0  0  0  0  0  0  0
    2.8166    0.0013    0.0000 C   0  0  0  0  0  0  0  0  0  0  0  0
    2.1407    1.3404    0.0000 N   0  0  0  0  0  0  0  0  0  0  0  0
    0.6431    1.4246    0.0000 C   0  0  0  0  0  0  0  0  0  0  0  0
   -0.1787    0.1698    0.0000 C   0  0  0  0  0  0  0  0  0  0  0  0
   -1.6471    0.4763    0.0000 C   0  0  0  0  0  0  0  0  0  0  0  0
   -2.8022   -0.4806    0.0000 N   0  0  0  0  0  0  0  0  0  0  0  0
   -2.7743   -1.9804    0.0000 C   0  0  0  0  0  0  0  0  0  0  0  0
   -2.0080    1.9322    0.0000 C   0  0  0  0  0  0  0  0  0  0  0  0
   -0.9276    2.9727    0.0000 C   0  0  0  0  0  0  0  0  0  0  0  0
   -1.2885    4.4287    0.0000 C   0  0  0  0  0  0  0  0  0  0  0  0
   -2.7299    4.8440    0.0000 C   0  0  0  0  0  0  0  0  0  0  0  0
   -3.8103    3.8035    0.0000 C   0  0  0  0  0  0  0  0  0  0  0  0
   -3.4493    2.3476    0.0000 C   0  0  0  0  0  0  0  0  0  0  0  0
   -4.5297    1.3070    0.0000 Cl  0  0  0  0  0  0  0  0  0  0  0  0
    4.3142   -0.0830    0.0000 N   0  0  0  0  0  0  0  0  0  0  0  0
    4.9901   -1.4221    0.0000 C   0  0  0  0  0  0  0  0  0  0  0  0
    6.4877   -1.5063    0.0000 C   0  0  0  0  0  0  0  0  0  0  0  0
    7.3095   -0.2514    0.0000 O   0  0  0  0  0  0  0  0  0  0  0  0
    6.6336    1.0877    0.0000 C   0  0  0  0  0  0  0  0  0  0  0  0
    5.1360    1.1719    0.0000 C   0  0  0  0  0  0  0  0  0  0  0  0
  1  2  1  0
  2  3  1  0
  3  4  1  0
  4  5  2  0
  5  6  1  0
  6  7  1  0
  7  8  2  0
  8  9  1  0
  9 10  2  0
 10 11  1  0
 11 12  2  0
 12 13  1  0
 13 14  2  0
 14 15  1  0
 13 16  1  0
 16 17  2  0
 17 18  1  0
 18 19  2  0
 19 20  1  0
 20 21  2  0
 21 22  1  0
  9 23  1  0
 23 24  1  0
 24 25  1  0
 25 26  1  0
 26 27  1  0
 27 28  1  0
 15  2  2  0
 21 16  1  0
 28 23  1  0
 15  5  1  0
 12  7  1  0
M  END
>  <BrandName>  (195) 


>  <Applicants>  (195) 
TransThera Biosciences

>  <CHEMBL_ID>  (195) 
CHEMBL5314430

>  <Canonical_Smiles>  (195) 
CC1NN=C2NC3C=C(N=CC=3C(=NC2=1)C1C=CC=CC=1Cl)N1CCOCC1

>  <Chirality>  (195) 
Achiral Molecule

>  <First_Approval>  (195) 
nan

>  <Phase>  (195) 
2.0

>  <SC_Patent>  (195) 
nan

>  <Synonyms>  (195) 
TINENGOTINIB | TT 00420 | TT-00420

>  <Withdrawn>  (195) 
nan

>  <Indications>  (195) 
nan

>  <Type>  (195) 
nan

>  <targets_id>  (195) 
nan

>  <Inchi>  (195) 
InChI=1S/C20H19ClN6O/c1-12-18-20(26-25-12)23-16-10-17(27-6-8-28-9-7-27)22-11-14(16)19(24-18)13-4-2-3-5-15(13)21/h2-5,10-11H,6-9H2,1H3,(H2,23,25,26)

>  <stdInchikey>  (195) 
DQFCVOOFMXEPOC-UHFFFAOYSA-N

>  <csid>  (195) 
115008005

>  <Links>  (195) 
|http://www.chemspider.com/Chemical-Structure.115008005.html|https://www.ebi.ac.uk/chembldb/compound/inspect/CHEMBL5314430|https://pubchem.ncbi.nlm.nih.gov/compound/137279257|https://go.drugbank.com/drugs/DB17384|https://www.rcsb.org/ligand/KX0|https://www.ebi.ac.uk/pdbe-srv/pdbechem/chemicalCompound/show/KX0|https://precision.fda.gov/uniisearch/srs/unii/WZ9TJ0L9Y8

>  <LinkName>  (195) 
|ChemSpider|ChEMBL|PubChem|DrugBank|RCSB|PDBe|FDA SRS

>  <lig_pdb_ID>  (195) 
KX0

>  <pdb_IDs>  (195) 
8h75

>  <indicationDB>  (195) 


>  <uniprotId>  (195) 


>  <indicationG2P>  (195) 


>  <MW>  (195) 
394.1

>  <HBA>  (195) 
6

>  <HBD>  (195) 
2

>  <NRB>  (195) 
2

>  <TPSA>  (195) 
78.4

>  <LogP>  (195) 
3.8

>  <RoF>  (195) 
0

>  <Melting point>  (195) 
nan

>  <Targets>  (195) 
nan

>  <Kinase families>  (195) 


>  <FDA_approved>  (195) 


$$$$
Recilisib
     RDKit          2D

 22 23  0  0  0  0  0  0  0  0999 V2000
   -3.8172   -0.8558    0.0000 C   0  0  0  0  0  0  0  0  0  0  0  0
   -5.0051   -1.7717    0.0000 C   0  0  0  0  0  0  0  0  0  0  0  0
   -6.3923   -1.2010    0.0000 C   0  0  0  0  0  0  0  0  0  0  0  0
   -6.5916    0.2857    0.0000 C   0  0  0  0  0  0  0  0  0  0  0  0
   -5.4038    1.2017    0.0000 C   0  0  0  0  0  0  0  0  0  0  0  0
   -4.0166    0.6309    0.0000 C   0  0  0  0  0  0  0  0  0  0  0  0
   -2.8287    1.5469    0.0000 C   0  0  0  0  0  0  0  0  0  0  0  0
   -1.4415    0.9762    0.0000 S   0  0  0  0  0  0  0  0  0  0  0  0
   -0.8708    2.3634    0.0000 O   0  0  0  0  0  0  0  0  0  0  0  0
   -2.0123   -0.4110    0.0000 O   0  0  0  0  0  0  0  0  0  0  0  0
   -0.0544    0.4055    0.0000 C   0  0  0  0  0  0  0  0  0  0  0  0
    1.1335    1.3214    0.0000 C   0  0  0  0  0  0  0  0  0  0  0  0
    2.5207    0.7507    0.0000 C   0  0  0  0  0  0  0  0  0  0  0  0
    2.7200   -0.7360    0.0000 C   0  0  0  0  0  0  0  0  0  0  0  0
    4.1072   -1.3067    0.0000 C   0  0  0  0  0  0  0  0  0  0  0  0
    5.2950   -0.3907    0.0000 C   0  0  0  0  0  0  0  0  0  0  0  0
    5.0957    1.0960    0.0000 C   0  0  0  0  0  0  0  0  0  0  0  0
    3.7085    1.6667    0.0000 C   0  0  0  0  0  0  0  0  0  0  0  0
    6.6822   -0.9615    0.0000 C   0  0  0  0  0  0  0  0  0  0  0  0
    7.8701   -0.0455    0.0000 O   0  0  0  0  0  0  0  0  0  0  0  0
    6.8815   -2.4482    0.0000 O   0  0  0  0  0  0  0  0  0  0  0  0
   -7.5801   -2.1170    0.0000 Cl  0  0  0  0  0  0  0  0  0  0  0  0
  1  2  2  0
  2  3  1  0
  3  4  2  0
  4  5  1  0
  5  6  2  0
  6  7  1  0
  7  8  1  0
  8  9  2  0
  8 10  2  0
  8 11  1  0
 11 12  2  0
 12 13  1  0
 13 14  2  0
 14 15  1  0
 15 16  2  0
 16 17  1  0
 17 18  2  0
 16 19  1  0
 19 20  2  0
 19 21  1  0
  3 22  1  0
  6  1  1  0
 18 13  1  0
M  END
>  <BrandName>  (196) 
Ex-RAD;Ex-rad

>  <Applicants>  (196) 
Onconova Therapeutics

>  <CHEMBL_ID>  (196) 
CHEMBL2219421

>  <Canonical_Smiles>  (196) 
c1cc(ccc1CS(=O)(=O)/C=C/c2ccc(cc2)C(=O)O)Cl

>  <Chirality>  (196) 
Achiral Molecule

>  <First_Approval>  (196) 
nan

>  <Phase>  (196) 
2.0

>  <SC_Patent>  (196) 
nan

>  <Synonyms>  (196) 
EX-RAD | ON 01210 | ON 01210.NA | ON-01210 | ON01210 | RECILISIB

>  <Withdrawn>  (196) 
nan

>  <Indications>  (196) 
nan

>  <Type>  (196) 
nan

>  <targets_id>  (196) 
nan

>  <Inchi>  (196) 
InChI=1S/C16H13ClO4S/c17-15-7-3-13(4-8-15)11-22(20,21)10-9-12-1-5-14(6-2-12)16(18)19/h1-10H,11H2,(H,18,19)/b10-9+

>  <stdInchikey>  (196) 
KBEKQQJUNVQLDZ-MDZDMXLPSA-N

>  <csid>  (196) 
8059894

>  <Links>  (196) 
|http://www.chemspider.com/Chemical-Structure.8059894.html|https://www.ebi.ac.uk/chembldb/compound/inspect/CHEMBL2219421|https://pubchem.ncbi.nlm.nih.gov/compound/9884220|https://go.drugbank.com/drugs/DB18310|https://zinc15.docking.org/substances/ZINC000034007613|https://precision.fda.gov/uniisearch/srs/unii/F5V4K11SYV

>  <LinkName>  (196) 
|ChemSpider|ChEMBL|PubChem|DrugBank|ZINC|FDA SRS

>  <lig_pdb_ID>  (196) 


>  <pdb_IDs>  (196) 


>  <indicationDB>  (196) 


>  <uniprotId>  (196) 


>  <indicationG2P>  (196) 


>  <MW>  (196) 
336.0

>  <HBA>  (196) 
3

>  <HBD>  (196) 
1

>  <NRB>  (196) 
5

>  <TPSA>  (196) 
71.4

>  <LogP>  (196) 
3.6

>  <RoF>  (196) 
0

>  <Melting point>  (196) 
nan

>  <Targets>  (196) 
nan

>  <Kinase families>  (196) 


>  <FDA_approved>  (196) 


$$$$
Nedometinib
     RDKit          2D

 26 28  0  0  0  0  0  0  0  0999 V2000
    3.0642    0.3014    0.0000 C   0  0  0  0  0  0  0  0  0  0  0  0
    1.9410   -0.6928    0.0000 N   0  0  0  0  0  0  0  0  0  0  0  0
    0.4765   -0.3686    0.0000 C   0  0  0  0  0  0  0  0  0  0  0  0
   -0.1220    1.0069    0.0000 N   0  0  0  0  0  0  0  0  0  0  0  0
    0.7699    2.2129    0.0000 C   0  0  0  0  0  0  0  0  0  0  0  0
    2.2603    2.0435    0.0000 C   0  0  0  0  0  0  0  0  0  0  0  0
    3.1522    3.2495    0.0000 C   0  0  0  0  0  0  0  0  0  0  0  0
    4.6426    3.0801    0.0000 I   0  0  0  0  0  0  0  0  0  0  0  0
    2.5537    4.6250    0.0000 C   0  0  0  0  0  0  0  0  0  0  0  0
    1.0633    4.7944    0.0000 C   0  0  0  0  0  0  0  0  0  0  0  0
    0.1714    3.5883    0.0000 C   0  0  0  0  0  0  0  0  0  0  0  0
   -1.3190    3.7577    0.0000 F   0  0  0  0  0  0  0  0  0  0  0  0
   -0.2844   -1.6612    0.0000 C   0  0  0  0  0  0  0  0  0  0  0  0
   -1.7775   -1.8054    0.0000 C   0  0  0  0  0  0  0  0  0  0  0  0
   -2.3992   -3.1705    0.0000 O   0  0  0  0  0  0  0  0  0  0  0  0
   -2.6489   -0.5844    0.0000 N   0  0  0  0  0  0  0  0  0  0  0  0
   -4.1419   -0.7286    0.0000 O   0  0  0  0  0  0  0  0  0  0  0  0
   -5.0133    0.4923    0.0000 C   0  0  0  0  0  0  0  0  0  0  0  0
   -6.5064    0.3481    0.0000 C   0  0  0  0  0  0  0  0  0  0  0  0
   -7.3778    1.5691    0.0000 O   0  0  0  0  0  0  0  0  0  0  0  0
    0.7098   -2.7844    0.0000 C   0  0  0  0  0  0  0  0  0  0  0  0
    0.5404   -4.2748    0.0000 C   0  0  0  0  0  0  0  0  0  0  0  0
    1.7464   -5.1667    0.0000 C   0  0  0  0  0  0  0  0  0  0  0  0
    3.1219   -4.5682    0.0000 C   0  0  0  0  0  0  0  0  0  0  0  0
    3.2913   -3.0778    0.0000 N   0  0  0  0  0  0  0  0  0  0  0  0
    2.0852   -2.1859    0.0000 C   0  0  0  0  0  0  0  0  0  0  0  0
  1  2  1  0
  2  3  1  0
  3  4  1  0
  4  5  1  0
  5  6  2  0
  6  7  1  0
  7  8  1  0
  7  9  2  0
  9 10  1  0
 10 11  2  0
 11 12  1  0
  3 13  2  0
 13 14  1  0
 14 15  2  0
 14 16  1  0
 16 17  1  0
 17 18  1  0
 18 19  1  0
 19 20  1  0
 13 21  1  0
 21 22  2  0
 22 23  1  0
 23 24  2  0
 24 25  1  0
 25 26  2  0
 26  2  1  0
 11  5  1  0
 26 21  1  0
M  END
>  <BrandName>  (197) 


>  <Applicants>  (197) 
('',)

>  <CHEMBL_ID>  (197) 
CHEMBL5314531

>  <Canonical_Smiles>  (197) 
Cn1c(Nc2cc(I)ccc2F)c(C(=O)NOCCO)c2cccnc21

>  <Chirality>  (197) 
Unknown

>  <First_Approval>  (197) 
nan

>  <Phase>  (197) 
2.0

>  <SC_Patent>  (197) 
nan

>  <Synonyms>  (197) 
NEDOMETINIB

>  <Withdrawn>  (197) 
nan

>  <Indications>  (197) 
nan

>  <Type>  (197) 
nan

>  <targets_id>  (197) 
nan

>  <Inchi>  (197) 
InChI=1S/C17H16FIN4O3/c1-23-15-11(3-2-6-20-15)14(17(25)22-26-8-7-24)16(23)21-13-9-10(19)4-5-12(13)18/h2-6,9,21,24H,7-8H2,1H3,(H,22,25)

>  <stdInchikey>  (197) 
VEQSSOJMGUVFRG-UHFFFAOYSA-N

>  <csid>  (197) 
nan

>  <Links>  (197) 
|http://www.chemspider.com/Chemical-Structure.nan.html|https://www.ebi.ac.uk/chembldb/compound/inspect/CHEMBL5314531

>  <LinkName>  (197) 
|ChemSpider|ChEMBL

>  <lig_pdb_ID>  (197) 


>  <pdb_IDs>  (197) 


>  <indicationDB>  (197) 


>  <uniprotId>  (197) 


>  <indicationG2P>  (197) 


>  <MW>  (197) 
470.0

>  <HBA>  (197) 
6

>  <HBD>  (197) 
3

>  <NRB>  (197) 
6

>  <TPSA>  (197) 
88.4

>  <LogP>  (197) 
2.7

>  <RoF>  (197) 
0

>  <Melting point>  (197) 
nan

>  <Targets>  (197) 
nan

>  <Kinase families>  (197) 


>  <FDA_approved>  (197) 


$$$$
Pimicotinib
     RDKit          2D

 31 34  0  0  0  0  0  0  0  0999 V2000
    0.9861   -5.3028    0.0000 C   0  0  0  0  0  0  0  0  0  0  0  0
    0.5358   -3.8720    0.0000 C   0  0  0  0  0  0  0  0  0  0  0  0
   -0.9285   -3.5465    0.0000 N   0  0  0  0  0  0  0  0  0  0  0  0
   -1.3788   -2.1157    0.0000 C   0  0  0  0  0  0  0  0  0  0  0  0
   -2.8430   -1.7903    0.0000 N   0  0  0  0  0  0  0  0  0  0  0  0
   -3.2933   -0.3595    0.0000 C   0  0  0  0  0  0  0  0  0  0  0  0
   -2.2794    0.7459    0.0000 O   0  0  0  0  0  0  0  0  0  0  0  0
   -4.7576   -0.0340    0.0000 N   0  0  0  0  0  0  0  0  0  0  0  0
   -5.8816   -1.0273    0.0000 C   0  0  0  0  0  0  0  0  0  0  0  0
   -7.1736   -0.2653    0.0000 C   0  0  0  0  0  0  0  0  0  0  0  0
   -6.8482    1.1989    0.0000 C   0  0  0  0  0  0  0  0  0  0  0  0
   -8.3384    1.3695    0.0000 C   0  0  0  0  0  0  0  0  0  0  0  0
   -6.8343    2.6989    0.0000 C   0  0  0  0  0  0  0  0  0  0  0  0
   -5.3550    1.3419    0.0000 C   0  0  0  0  0  0  0  0  0  0  0  0
   -4.5930    2.6339    0.0000 O   0  0  0  0  0  0  0  0  0  0  0  0
   -0.3648   -1.0103    0.0000 C   0  0  0  0  0  0  0  0  0  0  0  0
    1.0995   -1.3358    0.0000 C   0  0  0  0  0  0  0  0  0  0  0  0
    1.5498   -2.7666    0.0000 C   0  0  0  0  0  0  0  0  0  0  0  0
    3.0140   -3.0920    0.0000 O   0  0  0  0  0  0  0  0  0  0  0  0
    4.0280   -1.9867    0.0000 C   0  0  0  0  0  0  0  0  0  0  0  0
    5.4923   -2.3121    0.0000 C   0  0  0  0  0  0  0  0  0  0  0  0
    6.5063   -1.2067    0.0000 C   0  0  0  0  0  0  0  0  0  0  0  0
    6.0560    0.2241    0.0000 N   0  0  0  0  0  0  0  0  0  0  0  0
    4.5917    0.5495    0.0000 C   0  0  0  0  0  0  0  0  0  0  0  0
    4.1414    1.9803    0.0000 C   0  0  0  0  0  0  0  0  0  0  0  0
    2.7192    2.4571    0.0000 C   0  0  0  0  0  0  0  0  0  0  0  0
    2.7331    3.9570    0.0000 N   0  0  0  0  0  0  0  0  0  0  0  0
    4.1639    4.4073    0.0000 N   0  0  0  0  0  0  0  0  0  0  0  0
    4.6406    5.8295    0.0000 C   0  0  0  0  0  0  0  0  0  0  0  0
    5.0343    3.1857    0.0000 C   0  0  0  0  0  0  0  0  0  0  0  0
    3.5777   -0.5558    0.0000 C   0  0  0  0  0  0  0  0  0  0  0  0
  1  2  1  0
  2  3  2  0
  3  4  1  0
  4  5  1  0
  5  6  1  0
  6  7  2  0
  6  8  1  0
  8  9  1  0
  9 10  1  0
 10 11  1  0
 11 12  1  0
 11 13  1  0
 11 14  1  0
 14 15  2  0
  4 16  2  0
 16 17  1  0
 17 18  2  0
 18 19  1  0
 19 20  1  0
 20 21  2  0
 21 22  1  0
 22 23  2  0
 23 24  1  0
 24 25  1  0
 25 26  1  0
 26 27  2  0
 27 28  1  0
 28 29  1  0
 28 30  1  0
 24 31  2  0
 18  2  1  0
 31 20  1  0
 14  8  1  0
 30 25  2  0
M  END
>  <BrandName>  (198) 


>  <Applicants>  (198) 
('Abbisko Therapeutics',)

>  <CHEMBL_ID>  (198) 
CHEMBL5314535

>  <Canonical_Smiles>  (198) 
Cc1nc(NC(=O)N2CCC(C)(C)C2=O)ccc1Oc1ccnc(-c2cnn(C)c2)c1

>  <Chirality>  (198) 
Unknown

>  <First_Approval>  (198) 
nan

>  <Phase>  (198) 
2.0

>  <SC_Patent>  (198) 
nan

>  <Synonyms>  (198) 
PIMICOTINIB

>  <Withdrawn>  (198) 
nan

>  <Indications>  (198) 
nan

>  <Type>  (198) 
nan

>  <targets_id>  (198) 
nan

>  <Inchi>  (198) 
InChI=1S/C22H24N6O3/c1-14-18(31-16-7-9-23-17(11-16)15-12-24-27(4)13-15)5-6-19(25-14)26-21(30)28-10-8-22(2,3)20(28)29/h5-7,9,11-13H,8,10H2,1-4H3,(H,25,26,30)

>  <stdInchikey>  (198) 
NXFPMDWYDKHFMM-UHFFFAOYSA-N

>  <csid>  (198) 
128942304

>  <Links>  (198) 
|http://www.chemspider.com/Chemical-Structure.128942304.html|https://www.ebi.ac.uk/chembldb/compound/inspect/CHEMBL5314535|https://pubchem.ncbi.nlm.nih.gov/compound/139549388

>  <LinkName>  (198) 
|ChemSpider|ChEMBL|PubChem

>  <lig_pdb_ID>  (198) 


>  <pdb_IDs>  (198) 


>  <indicationDB>  (198) 


>  <uniprotId>  (198) 


>  <indicationG2P>  (198) 


>  <MW>  (198) 
420.2

>  <HBA>  (198) 
7

>  <HBD>  (198) 
1

>  <NRB>  (198) 
4

>  <TPSA>  (198) 
102.2

>  <LogP>  (198) 
3.8

>  <RoF>  (198) 
0

>  <Melting point>  (198) 
nan

>  <Targets>  (198) 
nan

>  <Kinase families>  (198) 


>  <FDA_approved>  (198) 


$$$$
Lucitanib
     RDKit          2D

 33 37  0  0  0  0  0  0  0  0999 V2000
   -9.3171   -2.7471    0.0000 C   0  0  0  0  0  0  0  0  0  0  0  0
   -8.7300   -1.3668    0.0000 N   0  0  0  0  0  0  0  0  0  0  0  0
   -7.2410   -1.1851    0.0000 C   0  0  0  0  0  0  0  0  0  0  0  0
   -6.3392   -2.3837    0.0000 O   0  0  0  0  0  0  0  0  0  0  0  0
   -6.6539    0.1952    0.0000 C   0  0  0  0  0  0  0  0  0  0  0  0
   -7.5557    1.3939    0.0000 C   0  0  0  0  0  0  0  0  0  0  0  0
   -6.9685    2.7742    0.0000 C   0  0  0  0  0  0  0  0  0  0  0  0
   -5.4796    2.9558    0.0000 C   0  0  0  0  0  0  0  0  0  0  0  0
   -4.5778    1.7572    0.0000 C   0  0  0  0  0  0  0  0  0  0  0  0
   -5.1649    0.3769    0.0000 C   0  0  0  0  0  0  0  0  0  0  0  0
   -4.2631   -0.8217    0.0000 C   0  0  0  0  0  0  0  0  0  0  0  0
   -2.7741   -0.6401    0.0000 C   0  0  0  0  0  0  0  0  0  0  0  0
   -2.1870    0.7402    0.0000 C   0  0  0  0  0  0  0  0  0  0  0  0
   -3.0888    1.9389    0.0000 C   0  0  0  0  0  0  0  0  0  0  0  0
   -0.6980    0.9219    0.0000 O   0  0  0  0  0  0  0  0  0  0  0  0
    0.2038   -0.2767    0.0000 C   0  0  0  0  0  0  0  0  0  0  0  0
   -0.3834   -1.6570    0.0000 C   0  0  0  0  0  0  0  0  0  0  0  0
    0.5185   -2.8557    0.0000 C   0  0  0  0  0  0  0  0  0  0  0  0
    2.0074   -2.6740    0.0000 N   0  0  0  0  0  0  0  0  0  0  0  0
    2.5946   -1.2937    0.0000 C   0  0  0  0  0  0  0  0  0  0  0  0
    1.6927   -0.0951    0.0000 C   0  0  0  0  0  0  0  0  0  0  0  0
    2.2799    1.2853    0.0000 C   0  0  0  0  0  0  0  0  0  0  0  0
    3.7688    1.4669    0.0000 C   0  0  0  0  0  0  0  0  0  0  0  0
    4.6707    0.2683    0.0000 C   0  0  0  0  0  0  0  0  0  0  0  0
    4.0835   -1.1120    0.0000 C   0  0  0  0  0  0  0  0  0  0  0  0
    6.1596    0.4500    0.0000 O   0  0  0  0  0  0  0  0  0  0  0  0
    7.0614   -0.7487    0.0000 C   0  0  0  0  0  0  0  0  0  0  0  0
    8.5504   -0.5670    0.0000 C   0  0  0  0  0  0  0  0  0  0  0  0
   10.0117   -0.9055    0.0000 C   0  0  0  0  0  0  0  0  0  0  0  0
    8.9879   -2.0018    0.0000 C   0  0  0  0  0  0  0  0  0  0  0  0
    8.6300    0.9309    0.0000 N   0  0  0  0  0  0  0  0  0  0  0  0
    4.3560    2.8472    0.0000 O   0  0  0  0  0  0  0  0  0  0  0  0
    5.8450    3.0289    0.0000 C   0  0  0  0  0  0  0  0  0  0  0  0
  1  2  1  0
  2  3  1  0
  3  4  2  0
  3  5  1  0
  5  6  2  0
  6  7  1  0
  7  8  2  0
  8  9  1  0
  9 10  2  0
 10 11  1  0
 11 12  2  0
 12 13  1  0
 13 14  2  0
 13 15  1  0
 15 16  1  0
 16 17  2  0
 17 18  1  0
 18 19  2  0
 19 20  1  0
 20 21  2  0
 21 22  1  0
 22 23  2  0
 23 24  1  0
 24 25  2  0
 24 26  1  0
 26 27  1  0
 27 28  1  0
 28 29  1  0
 29 30  1  0
 28 31  1  0
 23 32  1  0
 32 33  1  0
 10  5  1  0
 14  9  1  0
 21 16  1  0
 25 20  1  0
 30 28  1  0
M  END
>  <BrandName>  (199) 


>  <Applicants>  (199) 
Clovis Oncology

>  <CHEMBL_ID>  (199) 
CHEMBL2220486

>  <Canonical_Smiles>  (199) 
CNC(=O)c1cccc2c1ccc(c2)Oc3ccnc4c3cc(c(c4)OCC5(CC5)N)OC

>  <Chirality>  (199) 
Achiral Molecule

>  <First_Approval>  (199) 
nan

>  <Phase>  (199) 
2.0

>  <SC_Patent>  (199) 
nan

>  <Synonyms>  (199) 
AL-3810 | CO-3810 | E-3810 | LUCITANIB | S 80881 | S-80881

>  <Withdrawn>  (199) 
{''}

>  <Indications>  (199) 
nan

>  <Type>  (199) 
1

>  <targets_id>  (199) 
P17948|P35968|P35916|P11362|P21802

>  <Inchi>  (199) 
InChI=1S/C26H25N3O4/c1-28-25(30)19-5-3-4-16-12-17(6-7-18(16)19)33-22-8-11-29-21-14-24(23(31-2)13-20(21)22)32-15-26(27)9-10-26/h3-8,11-14H,9-10,15,27H2,1-2H3,(H,28,30)

>  <stdInchikey>  (199) 
CUDVHEFYRIWYQD-UHFFFAOYSA-N

>  <csid>  (199) 
28189586

>  <Links>  (199) 
|http://www.chemspider.com/Chemical-Structure.28189586.html|https://www.ebi.ac.uk/chembldb/compound/inspect/CHEMBL2220486|https://pubchem.ncbi.nlm.nih.gov/compound/25031915|https://go.drugbank.com/drugs/DB11845|https://www.rcsb.org/ligand/3ZC|https://www.ebi.ac.uk/pdbe-srv/pdbechem/chemicalCompound/show/3ZC|https://www.guidetopharmacology.org/GRAC/LigandDisplayForward?7649|https://zinc15.docking.org/substances/ZINC000077024213|https://precision.fda.gov/uniisearch/srs/unii/PP449XA4BH|https://www.bindingdb.org/bind/chemsearch/marvin/MolStructure.jsp?monomerid=50399539

>  <LinkName>  (199) 
|ChemSpider|ChEMBL|PubChem|DrugBank|RCSB|PDBe|Guide to Pharmacology|ZINC|FDA SRS|BindingDB

>  <lig_pdb_ID>  (199) 
3ZC

>  <pdb_IDs>  (199) 
4rwl

>  <indicationDB>  (199) 


>  <uniprotId>  (199) 


>  <indicationG2P>  (199) 
None

>  <MW>  (199) 
443.2

>  <HBA>  (199) 
6

>  <HBD>  (199) 
2

>  <NRB>  (199) 
7

>  <TPSA>  (199) 
95.7

>  <LogP>  (199) 
4.4

>  <RoF>  (199) 
0

>  <Melting point>  (199) 
nan

>  <Targets>  (199) 
FLT1; KDR; FLT4; FGFR1; FGFR2

>  <Kinase families>  (199) 
Tyr

>  <FDA_approved>  (199) 


$$$$
Irpagratinib
     RDKit          2D

 41 45  0  0  0  0  0  0  0  0999 V2000
  -10.5398   -2.8984    0.0000 C   0  0  0  0  0  0  0  0  0  0  0  0
   -9.0403   -2.9365    0.0000 C   0  0  0  0  0  0  0  0  0  0  0  0
   -8.2575   -1.6570    0.0000 C   0  0  0  0  0  0  0  0  0  0  0  0
   -8.9743   -0.3393    0.0000 O   0  0  0  0  0  0  0  0  0  0  0  0
   -6.7580   -1.6951    0.0000 N   0  0  0  0  0  0  0  0  0  0  0  0
   -5.9752   -0.4155    0.0000 C   0  0  0  0  0  0  0  0  0  0  0  0
   -6.6920    0.9022    0.0000 C   0  0  0  0  0  0  0  0  0  0  0  0
   -5.9092    2.1818    0.0000 C   0  0  0  0  0  0  0  0  0  0  0  0
   -4.4097    2.1437    0.0000 O   0  0  0  0  0  0  0  0  0  0  0  0
   -3.6930    0.8260    0.0000 C   0  0  0  0  0  0  0  0  0  0  0  0
   -4.4757   -0.4536    0.0000 C   0  0  0  0  0  0  0  0  0  0  0  0
   -3.7590   -1.7713    0.0000 N   0  0  0  0  0  0  0  0  0  0  0  0
   -2.2594   -1.8094    0.0000 C   0  0  0  0  0  0  0  0  0  0  0  0
   -1.5427   -3.1270    0.0000 N   0  0  0  0  0  0  0  0  0  0  0  0
   -0.0432   -3.1651    0.0000 C   0  0  0  0  0  0  0  0  0  0  0  0
    0.7396   -1.8856    0.0000 C   0  0  0  0  0  0  0  0  0  0  0  0
    2.2391   -1.9237    0.0000 C   0  0  0  0  0  0  0  0  0  0  0  0
    3.0219   -0.6441    0.0000 C   0  0  0  0  0  0  0  0  0  0  0  0
    4.5214   -0.6822    0.0000 C   0  0  0  0  0  0  0  0  0  0  0  0
    5.2381   -1.9999    0.0000 C   0  0  0  0  0  0  0  0  0  0  0  0
    4.4554   -3.2794    0.0000 F   0  0  0  0  0  0  0  0  0  0  0  0
    6.7376   -2.0380    0.0000 C   0  0  0  0  0  0  0  0  0  0  0  0
    7.4544   -3.3556    0.0000 O   0  0  0  0  0  0  0  0  0  0  0  0
    8.9539   -3.3937    0.0000 C   0  0  0  0  0  0  0  0  0  0  0  0
    7.5204   -0.7584    0.0000 C   0  0  0  0  0  0  0  0  0  0  0  0
    6.8036    0.5593    0.0000 C   0  0  0  0  0  0  0  0  0  0  0  0
    7.5864    1.8388    0.0000 O   0  0  0  0  0  0  0  0  0  0  0  0
    9.0859    1.8007    0.0000 C   0  0  0  0  0  0  0  0  0  0  0  0
    5.3041    0.5974    0.0000 C   0  0  0  0  0  0  0  0  0  0  0  0
    4.5874    1.9150    0.0000 F   0  0  0  0  0  0  0  0  0  0  0  0
    2.3051    0.6736    0.0000 N   0  0  0  0  0  0  0  0  0  0  0  0
    0.8056    0.7117    0.0000 C   0  0  0  0  0  0  0  0  0  0  0  0
    0.0888    2.0293    0.0000 N   0  0  0  0  0  0  0  0  0  0  0  0
    0.5137    3.4679    0.0000 C   0  0  0  0  0  0  0  0  0  0  0  0
   -0.9248    3.8928    0.0000 C   0  0  0  0  0  0  0  0  0  0  0  0
   -2.3634    4.3177    0.0000 C   0  0  0  0  0  0  0  0  0  0  0  0
   -0.4999    5.3314    0.0000 O   0  0  0  0  0  0  0  0  0  0  0  0
    0.9583    5.6827    0.0000 C   0  0  0  0  0  0  0  0  0  0  0  0
   -1.3497    2.4543    0.0000 C   0  0  0  0  0  0  0  0  0  0  0  0
    0.0228   -0.5679    0.0000 C   0  0  0  0  0  0  0  0  0  0  0  0
   -1.4767   -0.5298    0.0000 N   0  0  0  0  0  0  0  0  0  0  0  0
  1  2  2  0
  2  3  1  0
  3  4  2  0
  3  5  1  0
  6  5  1  1
  6  7  1  0
  7  8  1  0
  8  9  1  0
  9 10  1  0
 10 11  1  0
 11 12  1  1
 12 13  1  0
 13 14  2  0
 14 15  1  0
 15 16  2  0
 16 17  1  0
 17 18  2  0
 18 19  1  0
 19 20  2  0
 20 21  1  0
 20 22  1  0
 22 23  1  0
 23 24  1  0
 22 25  2  0
 25 26  1  0
 26 27  1  0
 27 28  1  0
 26 29  2  0
 29 30  1  0
 18 31  1  0
 31 32  2  0
 32 33  1  0
 33 34  1  0
 34 35  1  0
 35 36  1  0
 35 37  1  0
 37 38  1  0
 35 39  1  0
 32 40  1  0
 40 41  2  0
 11  6  1  0
 41 13  1  0
 40 16  1  0
 29 19  1  0
 39 33  1  0
M  END
>  <BrandName>  (200) 


>  <Applicants>  (200) 
('Abbisko Therapeutics ',)

>  <CHEMBL_ID>  (200) 
CHEMBL5314522

>  <Canonical_Smiles>  (200) 
C=CC(=O)N[C@H]1CCOC[C@H]1Nc1ncc2cc(-c3c(F)c(OC)cc(OC)c3F)nc(N3CC(C)(OC)C3)c2n1

>  <Chirality>  (200) 
Unknown

>  <First_Approval>  (200) 
nan

>  <Phase>  (200) 
2.0

>  <SC_Patent>  (200) 
nan

>  <Synonyms>  (200) 
IRPAGRATINIB

>  <Withdrawn>  (200) 
nan

>  <Indications>  (200) 
nan

>  <Type>  (200) 
nan

>  <targets_id>  (200) 
nan

>  <Inchi>  (200) 
InChI=1S/C28H32F2N6O5/c1-6-21(37)32-16-7-8-41-12-18(16)34-27-31-11-15-9-17(22-23(29)19(38-3)10-20(39-4)24(22)30)33-26(25(15)35-27)36-13-28(2,14-36)40-5/h6,9-11,16,18H,1,7-8,12-14H2,2-5H3,(H,32,37)(H,31,34,35)/t16-,18+/m0/s1

>  <stdInchikey>  (200) 
PGRHEHZIRYNZDV-FUHWJXTLSA-N

>  <csid>  (200) 
nan

>  <Links>  (200) 
|http://www.chemspider.com/Chemical-Structure.nan.html|https://www.ebi.ac.uk/chembldb/compound/inspect/CHEMBL5314522|https://pubchem.ncbi.nlm.nih.gov/compound/135181440

>  <LinkName>  (200) 
|ChemSpider|ChEMBL|PubChem

>  <lig_pdb_ID>  (200) 


>  <pdb_IDs>  (200) 


>  <indicationDB>  (200) 


>  <uniprotId>  (200) 


>  <indicationG2P>  (200) 


>  <MW>  (200) 
570.2

>  <HBA>  (200) 
10

>  <HBD>  (200) 
2

>  <NRB>  (200) 
9

>  <TPSA>  (200) 
120.0

>  <LogP>  (200) 
3.1

>  <RoF>  (200) 
1

>  <Melting point>  (200) 
nan

>  <Targets>  (200) 
nan

>  <Kinase families>  (200) 


>  <FDA_approved>  (200) 


$$$$
Neflamapimod
     RDKit          2D

 28 31  0  0  0  0  0  0  0  0999 V2000
   -4.3541   -3.6169    0.0000 C   0  0  0  0  0  0  0  0  0  0  0  0
   -5.3234   -2.4722    0.0000 C   0  0  0  0  0  0  0  0  0  0  0  0
   -4.8167   -1.0603    0.0000 C   0  0  0  0  0  0  0  0  0  0  0  0
   -3.3407   -0.7932    0.0000 C   0  0  0  0  0  0  0  0  0  0  0  0
   -2.3714   -1.9379    0.0000 C   0  0  0  0  0  0  0  0  0  0  0  0
   -2.8780   -3.3497    0.0000 C   0  0  0  0  0  0  0  0  0  0  0  0
   -0.8953   -1.6708    0.0000 Cl  0  0  0  0  0  0  0  0  0  0  0  0
   -2.8340    0.6186    0.0000 C   0  0  0  0  0  0  0  0  0  0  0  0
   -1.3580    0.8858    0.0000 C   0  0  0  0  0  0  0  0  0  0  0  0
   -0.3887   -0.2589    0.0000 C   0  0  0  0  0  0  0  0  0  0  0  0
    1.0874    0.0082    0.0000 C   0  0  0  0  0  0  0  0  0  0  0  0
    1.5940    1.4200    0.0000 C   0  0  0  0  0  0  0  0  0  0  0  0
    0.6247    2.5647    0.0000 N   0  0  0  0  0  0  0  0  0  0  0  0
   -0.8514    2.2976    0.0000 N   0  0  0  0  0  0  0  0  0  0  0  0
   -1.8207    3.4423    0.0000 C   0  0  0  0  0  0  0  0  0  0  0  0
   -3.2967    3.1752    0.0000 N   0  0  0  0  0  0  0  0  0  0  0  0
   -3.8034    1.7633    0.0000 C   0  0  0  0  0  0  0  0  0  0  0  0
   -5.2794    1.4962    0.0000 O   0  0  0  0  0  0  0  0  0  0  0  0
    3.0700    1.6872    0.0000 S   0  0  0  0  0  0  0  0  0  0  0  0
    4.0394    0.5425    0.0000 C   0  0  0  0  0  0  0  0  0  0  0  0
    3.5327   -0.8694    0.0000 C   0  0  0  0  0  0  0  0  0  0  0  0
    4.5021   -2.0141    0.0000 C   0  0  0  0  0  0  0  0  0  0  0  0
    5.9781   -1.7470    0.0000 C   0  0  0  0  0  0  0  0  0  0  0  0
    6.4848   -0.3351    0.0000 C   0  0  0  0  0  0  0  0  0  0  0  0
    5.5154    0.8096    0.0000 C   0  0  0  0  0  0  0  0  0  0  0  0
    6.0221    2.2214    0.0000 F   0  0  0  0  0  0  0  0  0  0  0  0
    6.9475   -2.8917    0.0000 F   0  0  0  0  0  0  0  0  0  0  0  0
   -5.7861    0.0844    0.0000 Cl  0  0  0  0  0  0  0  0  0  0  0  0
  1  2  2  0
  2  3  1  0
  3  4  2  0
  4  5  1  0
  5  6  2  0
  5  7  1  0
  4  8  1  0
  8  9  2  0
  9 10  1  0
 10 11  2  0
 11 12  1  0
 12 13  2  0
 13 14  1  0
 14 15  1  0
 15 16  2  0
 16 17  1  0
 17 18  2  0
 12 19  1  0
 19 20  1  0
 20 21  2  0
 21 22  1  0
 22 23  2  0
 23 24  1  0
 24 25  2  0
 25 26  1  0
 23 27  1  0
  3 28  1  0
  6  1  1  0
 17  8  1  0
 14  9  1  0
 25 20  1  0
M  END
>  <BrandName>  (201) 


>  <Applicants>  (201) 
EIP Pharma

>  <CHEMBL_ID>  (201) 
CHEMBL119385

>  <Canonical_Smiles>  (201) 
c1cc(c(c(c1)Cl)c2c3ccc(nn3cnc2=O)Sc4ccc(cc4F)F)Cl

>  <Chirality>  (201) 
Achiral Molecule

>  <First_Approval>  (201) 
nan

>  <Phase>  (201) 
2.0

>  <SC_Patent>  (201) 
nan

>  <Synonyms>  (201) 
745 | NEFLAMAPIMOD | VD-31 | VD-31,745 | VD-31745 | VRT-031745 | VX-745

>  <Withdrawn>  (201) 
nan

>  <Indications>  (201) 
nan

>  <Type>  (201) 
nan

>  <targets_id>  (201) 
Q16539

>  <Inchi>  (201) 
InChI=1S/C19H9Cl2F2N3OS/c20-11-2-1-3-12(21)17(11)18-14-5-7-16(25-26(14)9-24-19(18)27)28-15-6-4-10(22)8-13(15)23/h1-9H

>  <stdInchikey>  (201) 
VEPKQEUBKLEPRA-UHFFFAOYSA-N

>  <csid>  (201) 
2302086

>  <Links>  (201) 
|http://www.chemspider.com/Chemical-Structure.2302086.html|https://www.ebi.ac.uk/chembldb/compound/inspect/CHEMBL119385|https://pubchem.ncbi.nlm.nih.gov/compound/3038525|https://go.drugbank.com/drugs/DB07138|https://www.rcsb.org/ligand/52P|https://www.ebi.ac.uk/pdbe-srv/pdbechem/chemicalCompound/show/52P|https://www.guidetopharmacology.org/GRAC/LigandDisplayForward?5719|https://zinc15.docking.org/substances/ZINC000013493055|https://precision.fda.gov/uniisearch/srs/unii/TYL52QM320|https://www.bindingdb.org/bind/chemsearch/marvin/MolStructure.jsp?monomerid=15244

>  <LinkName>  (201) 
|ChemSpider|ChEMBL|PubChem|DrugBank|RCSB|PDBe|Guide to Pharmacology|ZINC|FDA SRS|BindingDB

>  <lig_pdb_ID>  (201) 
52P

>  <pdb_IDs>  (201) 
3fc1 3hp5 3zsi

>  <indicationDB>  (201) 


>  <uniprotId>  (201) 


>  <indicationG2P>  (201) 
None

>  <MW>  (201) 
435.0

>  <HBA>  (201) 
5

>  <HBD>  (201) 
0

>  <NRB>  (201) 
3

>  <TPSA>  (201) 
47.3

>  <LogP>  (201) 
5.5

>  <RoF>  (201) 
1

>  <Melting point>  (201) 
nan

>  <Targets>  (201) 
MAPK14

>  <Kinase families>  (201) 
CMGC

>  <FDA_approved>  (201) 


$$$$
Refametinib
     RDKit          2D

 31 33  0  0  0  0  0  0  0  0999 V2000
   -3.2633    2.0696    0.0000 C   0  0  0  0  0  0  0  0  0  0  0  0
   -1.9883    1.2795    0.0000 O   0  0  0  0  0  0  0  0  0  0  0  0
   -0.6665    1.9887    0.0000 C   0  0  0  0  0  0  0  0  0  0  0  0
   -0.6198    3.4880    0.0000 C   0  0  0  0  0  0  0  0  0  0  0  0
    0.7020    4.1972    0.0000 C   0  0  0  0  0  0  0  0  0  0  0  0
    1.9770    3.4071    0.0000 C   0  0  0  0  0  0  0  0  0  0  0  0
    1.9303    1.9078    0.0000 C   0  0  0  0  0  0  0  0  0  0  0  0
    0.6085    1.1986    0.0000 C   0  0  0  0  0  0  0  0  0  0  0  0
    0.5618   -0.3006    0.0000 N   0  0  0  0  0  0  0  0  0  0  0  0
   -0.7600   -1.0098    0.0000 S   0  0  0  0  0  0  0  0  0  0  0  0
   -1.4691    0.3119    0.0000 O   0  0  0  0  0  0  0  0  0  0  0  0
   -0.0508   -2.3316    0.0000 O   0  0  0  0  0  0  0  0  0  0  0  0
   -2.0817   -1.7190    0.0000 C   0  0  0  0  0  0  0  0  0  0  0  0
   -3.0812   -2.8375    0.0000 C   0  0  0  0  0  0  0  0  0  0  0  0
   -1.6129   -3.1438    0.0000 C   0  0  0  0  0  0  0  0  0  0  0  0
   -3.0097   -0.5405    0.0000 C   0  0  0  0  0  0  0  0  0  0  0  0
   -4.4943   -0.7548    0.0000 C   0  0  0  0  0  0  0  0  0  0  0  0
   -5.4222    0.4237    0.0000 C   0  0  0  0  0  0  0  0  0  0  0  0
   -6.9068    0.2094    0.0000 O   0  0  0  0  0  0  0  0  0  0  0  0
   -5.0510   -2.1477    0.0000 O   0  0  0  0  0  0  0  0  0  0  0  0
    3.2053    1.1177    0.0000 N   0  0  0  0  0  0  0  0  0  0  0  0
    3.1586   -0.3816    0.0000 C   0  0  0  0  0  0  0  0  0  0  0  0
    1.8368   -1.0907    0.0000 C   0  0  0  0  0  0  0  0  0  0  0  0
    1.7901   -2.5900    0.0000 C   0  0  0  0  0  0  0  0  0  0  0  0
    3.0652   -3.3801    0.0000 C   0  0  0  0  0  0  0  0  0  0  0  0
    4.3869   -2.6709    0.0000 C   0  0  0  0  0  0  0  0  0  0  0  0
    4.4337   -1.1717    0.0000 C   0  0  0  0  0  0  0  0  0  0  0  0
    5.7554   -0.4625    0.0000 F   0  0  0  0  0  0  0  0  0  0  0  0
    3.0185   -4.8794    0.0000 I   0  0  0  0  0  0  0  0  0  0  0  0
    3.2988    4.1163    0.0000 F   0  0  0  0  0  0  0  0  0  0  0  0
    0.7487    5.6964    0.0000 F   0  0  0  0  0  0  0  0  0  0  0  0
  1  2  1  0
  2  3  1  0
  3  4  2  0
  4  5  1  0
  5  6  2  0
  6  7  1  0
  7  8  2  0
  8  9  1  0
  9 10  1  0
 10 11  2  0
 10 12  2  0
 10 13  1  0
 13 14  1  0
 14 15  1  0
 13 16  1  0
 16 17  1  0
 17 18  1  0
 18 19  1  0
 17 20  1  6
  7 21  1  0
 21 22  1  0
 22 23  2  0
 23 24  1  0
 24 25  2  0
 25 26  1  0
 26 27  2  0
 27 28  1  0
 25 29  1  0
  6 30  1  0
  5 31  1  0
  8  3  1  0
 15 13  1  0
 27 22  1  0
M  END
>  <BrandName>  (202) 


>  <Applicants>  (202) 
Bayer

>  <CHEMBL_ID>  (202) 
CHEMBL1236682

>  <Canonical_Smiles>  (202) 
COc1cc(c(c(c1NS(=O)(=O)C2(CC2)C[C@@H](CO)O)Nc3ccc(cc3F)I)F)F

>  <Chirality>  (202) 
Single Stereoisomer

>  <First_Approval>  (202) 
nan

>  <Phase>  (202) 
2.0

>  <SC_Patent>  (202) 
nan

>  <Synonyms>  (202) 
BAY 869766 | BAY 8697661 | BAY-86-9766 | BAY-869766 | BAY-8697661 | BAY86-9766 | BAY869766 | BAY8697661 | RDEA 119 | RDEA-119 | RDEA119 | REFAMETINIB

>  <Withdrawn>  (202) 
{''}

>  <Indications>  (202) 
nan

>  <Type>  (202) 
nan

>  <targets_id>  (202) 
Q02750

>  <Inchi>  (202) 
InChI=1S/C19H20F3IN2O5S/c1-30-15-7-13(21)16(22)18(24-14-3-2-10(23)6-12(14)20)17(15)25-31(28,29)19(4-5-19)8-11(27)9-26/h2-3,6-7,11,24-27H,4-5,8-9H2,1H3/t11-/m0/s1

>  <stdInchikey>  (202) 
RDSACQWTXKSHJT-NSHDSACASA-N

>  <csid>  (202) 
25058723

>  <Links>  (202) 
|http://www.chemspider.com/Chemical-Structure.25058723.html|https://www.ebi.ac.uk/chembldb/compound/inspect/CHEMBL1236682|https://pubchem.ncbi.nlm.nih.gov/compound/44182295|https://go.drugbank.com/drugs/DB06309|https://www.rcsb.org/ligand/VRA|https://www.ebi.ac.uk/pdbe-srv/pdbechem/chemicalCompound/show/VRA|https://www.guidetopharmacology.org/GRAC/LigandDisplayForward?7942|https://zinc15.docking.org/substances/ZINC000039187987|https://precision.fda.gov/uniisearch/srs/unii/JPX07AFM0N

>  <LinkName>  (202) 
|ChemSpider|ChEMBL|PubChem|DrugBank|RCSB|PDBe|Guide to Pharmacology|ZINC|FDA SRS

>  <lig_pdb_ID>  (202) 
VRA

>  <pdb_IDs>  (202) 
3e8n

>  <indicationDB>  (202) 


>  <uniprotId>  (202) 


>  <indicationG2P>  (202) 
None

>  <MW>  (202) 
572.0

>  <HBA>  (202) 
6

>  <HBD>  (202) 
4

>  <NRB>  (202) 
9

>  <TPSA>  (202) 
107.9

>  <LogP>  (202) 
3.5

>  <RoF>  (202) 
1

>  <Melting point>  (202) 
nan

>  <Targets>  (202) 
MAP2K1

>  <Kinase families>  (202) 
STE

>  <FDA_approved>  (202) 


$$$$
Golidocitinib
     RDKit          2D

 36 40  0  0  0  0  0  0  0  0999 V2000
    2.2242    1.8189    0.0000 C   0  0  0  0  0  0  0  0  0  0  0  0
    3.5074    1.0420    0.0000 O   0  0  0  0  0  0  0  0  0  0  0  0
    4.8217    1.7648    0.0000 C   0  0  0  0  0  0  0  0  0  0  0  0
    5.0095    3.2530    0.0000 N   0  0  0  0  0  0  0  0  0  0  0  0
    6.4829    3.5343    0.0000 N   0  0  0  0  0  0  0  0  0  0  0  0
    7.1214    4.8916    0.0000 C   0  0  0  0  0  0  0  0  0  0  0  0
    7.2057    2.2199    0.0000 C   0  0  0  0  0  0  0  0  0  0  0  0
    6.1790    1.1263    0.0000 C   0  0  0  0  0  0  0  0  0  0  0  0
    6.4603   -0.3471    0.0000 N   0  0  0  0  0  0  0  0  0  0  0  0
    5.3250   -1.3274    0.0000 C   0  0  0  0  0  0  0  0  0  0  0  0
    5.6062   -2.8008    0.0000 N   0  0  0  0  0  0  0  0  0  0  0  0
    4.4709   -3.7810    0.0000 C   0  0  0  0  0  0  0  0  0  0  0  0
    3.0542   -3.2879    0.0000 C   0  0  0  0  0  0  0  0  0  0  0  0
    2.7730   -1.8145    0.0000 C   0  0  0  0  0  0  0  0  0  0  0  0
    1.3563   -1.3214    0.0000 C   0  0  0  0  0  0  0  0  0  0  0  0
    0.9226    0.1145    0.0000 C   0  0  0  0  0  0  0  0  0  0  0  0
   -0.5771    0.1457    0.0000 N   0  0  0  0  0  0  0  0  0  0  0  0
   -1.0702   -1.2709    0.0000 C   0  0  0  0  0  0  0  0  0  0  0  0
   -2.4529   -1.8524    0.0000 C   0  0  0  0  0  0  0  0  0  0  0  0
   -3.6478   -0.9457    0.0000 N   0  0  0  0  0  0  0  0  0  0  0  0
   -5.0305   -1.5271    0.0000 C   0  0  0  0  0  0  0  0  0  0  0  0
   -5.2183   -3.0153    0.0000 O   0  0  0  0  0  0  0  0  0  0  0  0
   -6.2255   -0.6204    0.0000 C   0  0  0  0  0  0  0  0  0  0  0  0
   -7.6082   -1.2018    0.0000 C   0  0  0  0  0  0  0  0  0  0  0  0
   -6.0377    0.8678    0.0000 N   0  0  0  0  0  0  0  0  0  0  0  0
   -4.6549    1.4493    0.0000 C   0  0  0  0  0  0  0  0  0  0  0  0
   -4.4671    2.9375    0.0000 C   0  0  0  0  0  0  0  0  0  0  0  0
   -5.6621    3.8442    0.0000 N   0  0  0  0  0  0  0  0  0  0  0  0
   -5.4743    5.3324    0.0000 C   0  0  0  0  0  0  0  0  0  0  0  0
   -7.0448    3.2628    0.0000 C   0  0  0  0  0  0  0  0  0  0  0  0
   -7.2326    1.7746    0.0000 C   0  0  0  0  0  0  0  0  0  0  0  0
   -2.6407   -3.3406    0.0000 C   0  0  0  0  0  0  0  0  0  0  0  0
   -1.4458   -4.2473    0.0000 C   0  0  0  0  0  0  0  0  0  0  0  0
   -0.0631   -3.6659    0.0000 C   0  0  0  0  0  0  0  0  0  0  0  0
    0.1247   -2.1777    0.0000 C   0  0  0  0  0  0  0  0  0  0  0  0
    3.9083   -0.8343    0.0000 N   0  0  0  0  0  0  0  0  0  0  0  0
  1  2  1  0
  2  3  1  0
  3  4  2  0
  4  5  1  0
  5  6  1  0
  5  7  1  0
  7  8  2  0
  8  9  1  0
  9 10  1  0
 10 11  2  0
 11 12  1  0
 12 13  2  0
 13 14  1  0
 14 15  1  0
 15 16  2  0
 16 17  1  0
 17 18  1  0
 18 19  2  0
 19 20  1  0
 20 21  1  0
 21 22  2  0
 21 23  1  0
 23 24  1  1
 23 25  1  0
 25 26  1  0
 26 27  1  0
 27 28  1  0
 28 29  1  0
 28 30  1  0
 30 31  1  0
 19 32  1  0
 32 33  2  0
 33 34  1  0
 34 35  2  0
 14 36  2  0
  8  3  1  0
 36 10  1  0
 35 15  1  0
 35 18  1  0
 31 25  1  0
M  END
>  <BrandName>  (203) 


>  <Applicants>  (203) 
Astrazeneca

>  <CHEMBL_ID>  (203) 
CHEMBL4577523

>  <Canonical_Smiles>  (203) 
COc1nn(C)cc1Nc1nccc(-c2c[nH]c3c(NC(=O)[C@@H](C)N4CCN(C)CC4)cccc23)n1

>  <Chirality>  (203) 
Single Stereoisomer

>  <First_Approval>  (203) 
nan

>  <Phase>  (203) 
2.0

>  <SC_Patent>  (203) 
nan

>  <Synonyms>  (203) 
AZD-4205 | AZD4205 | AZD4205 FREE BASE | GOLIDOCITINIB

>  <Withdrawn>  (203) 
nan

>  <Indications>  (203) 
nan

>  <Type>  (203) 
nan

>  <targets_id>  (203) 
nan

>  <Inchi>  (203) 
InChI=1S/C25H31N9O2/c1-16(34-12-10-32(2)11-13-34)23(35)28-20-7-5-6-17-18(14-27-22(17)20)19-8-9-26-25(29-19)30-21-15-33(3)31-24(21)36-4/h5-9,14-16,27H,10-13H2,1-4H3,(H,28,35)(H,26,29,30)/t16-/m1/s1

>  <stdInchikey>  (203) 
CVCVOSPZEVINRM-MRXNPFEDSA-N

>  <csid>  (203) 
71117616

>  <Links>  (203) 
|http://www.chemspider.com/Chemical-Structure.71117616.html|https://www.ebi.ac.uk/chembldb/compound/inspect/CHEMBL4577523|https://pubchem.ncbi.nlm.nih.gov/compound/126715380|https://go.drugbank.com/drugs/DB18057|https://www.guidetopharmacology.org/GRAC/LigandDisplayForward?10744|https://precision.fda.gov/uniisearch/srs/unii/3BY9Z3M34G

>  <LinkName>  (203) 
|ChemSpider|ChEMBL|PubChem|DrugBank|Guide to Pharmacology|FDA SRS

>  <lig_pdb_ID>  (203) 


>  <pdb_IDs>  (203) 


>  <indicationDB>  (203) 


>  <uniprotId>  (203) 


>  <indicationG2P>  (203) 
None

>  <MW>  (203) 
489.3

>  <HBA>  (203) 
9

>  <HBD>  (203) 
3

>  <NRB>  (203) 
7

>  <TPSA>  (203) 
116.2

>  <LogP>  (203) 
2.7

>  <RoF>  (203) 
0

>  <Melting point>  (203) 
nan

>  <Targets>  (203) 
nan

>  <Kinase families>  (203) 


>  <FDA_approved>  (203) 


$$$$
Labuxtinib
     RDKit          2D

 28 32  0  0  0  0  0  0  0  0999 V2000
    0.7953   -5.1801    0.0000 C   0  0  0  0  0  0  0  0  0  0  0  0
   -0.2659   -4.1200    0.0000 C   0  0  0  0  0  0  0  0  0  0  0  0
   -1.7146   -4.5090    0.0000 C   0  0  0  0  0  0  0  0  0  0  0  0
   -2.7759   -3.4490    0.0000 C   0  0  0  0  0  0  0  0  0  0  0  0
   -2.3884   -1.9999    0.0000 C   0  0  0  0  0  0  0  0  0  0  0  0
   -3.4497   -0.9398    0.0000 C   0  0  0  0  0  0  0  0  0  0  0  0
   -4.9311   -1.1753    0.0000 N   0  0  0  0  0  0  0  0  0  0  0  0
   -5.6128    0.1609    0.0000 O   0  0  0  0  0  0  0  0  0  0  0  0
   -4.5527    1.2221    0.0000 C   0  0  0  0  0  0  0  0  0  0  0  0
   -4.7882    2.7035    0.0000 C   0  0  0  0  0  0  0  0  0  0  0  0
   -5.7328    3.8687    0.0000 C   0  0  0  0  0  0  0  0  0  0  0  0
   -4.2514    4.1042    0.0000 C   0  0  0  0  0  0  0  0  0  0  0  0
   -3.0862    5.0488    0.0000 F   0  0  0  0  0  0  0  0  0  0  0  0
   -3.2159    0.5419    0.0000 N   0  0  0  0  0  0  0  0  0  0  0  0
   -0.9398   -1.6108    0.0000 C   0  0  0  0  0  0  0  0  0  0  0  0
    0.1215   -2.6709    0.0000 C   0  0  0  0  0  0  0  0  0  0  0  0
    1.5702   -2.2819    0.0000 N   0  0  0  0  0  0  0  0  0  0  0  0
    1.9576   -0.8328    0.0000 C   0  0  0  0  0  0  0  0  0  0  0  0
    0.8963    0.2273    0.0000 O   0  0  0  0  0  0  0  0  0  0  0  0
    3.4063   -0.4437    0.0000 C   0  0  0  0  0  0  0  0  0  0  0  0
    4.5725   -1.3871    0.0000 C   0  0  0  0  0  0  0  0  0  0  0  0
    5.8301   -0.5694    0.0000 N   0  0  0  0  0  0  0  0  0  0  0  0
    5.4410    0.8793    0.0000 C   0  0  0  0  0  0  0  0  0  0  0  0
    6.2573    2.1377    0.0000 C   0  0  0  0  0  0  0  0  0  0  0  0
    5.5756    3.4739    0.0000 C   0  0  0  0  0  0  0  0  0  0  0  0
    4.0776    3.5515    0.0000 C   0  0  0  0  0  0  0  0  0  0  0  0
    3.2613    2.2931    0.0000 C   0  0  0  0  0  0  0  0  0  0  0  0
    3.9430    0.9569    0.0000 N   0  0  0  0  0  0  0  0  0  0  0  0
  1  2  1  0
  2  3  2  0
  3  4  1  0
  4  5  2  0
  5  6  1  0
  6  7  2  0
  7  8  1  0
  8  9  1  0
 10  9  1  1
 10 11  1  0
 11 12  1  0
 12 13  1  6
  9 14  2  0
  5 15  1  0
 15 16  2  0
 16 17  1  0
 17 18  1  0
 18 19  2  0
 18 20  1  0
 20 21  2  0
 21 22  1  0
 22 23  2  0
 23 24  1  0
 24 25  2  0
 25 26  1  0
 26 27  2  0
 27 28  1  0
 16  2  1  0
 28 20  1  0
 14  6  1  0
 28 23  1  0
 12 10  1  0
M  END
>  <BrandName>  (204) 


>  <Applicants>  (204) 
('',)

>  <CHEMBL_ID>  (204) 
CHEMBL3962292

>  <Canonical_Smiles>  (204) 
Cc1ccc(-c2noc([C@H]3C[C@@H]3F)n2)cc1NC(=O)c1cnc2ccccn12

>  <Chirality>  (204) 
Unknown

>  <First_Approval>  (204) 
nan

>  <Phase>  (204) 
2.0

>  <SC_Patent>  (204) 
nan

>  <Synonyms>  (204) 
LABUXTINIB

>  <Withdrawn>  (204) 
nan

>  <Indications>  (204) 
nan

>  <Type>  (204) 
nan

>  <targets_id>  (204) 
nan

>  <Inchi>  (204) 
InChI=1S/C20H16FN5O2/c1-11-5-6-12(18-24-20(28-25-18)13-9-14(13)21)8-15(11)23-19(27)16-10-22-17-4-2-3-7-26(16)17/h2-8,10,13-14H,9H2,1H3,(H,23,27)/t13-,14-/m0/s1

>  <stdInchikey>  (204) 
RHNJOZCVGSBEAG-KBPBESRZSA-N

>  <csid>  (204) 
nan

>  <Links>  (204) 
|http://www.chemspider.com/Chemical-Structure.nan.html|https://www.ebi.ac.uk/chembldb/compound/inspect/CHEMBL3962292|https://pubchem.ncbi.nlm.nih.gov/compound/71280305|https://zinc15.docking.org/substances/ZINC000206103201|https://www.bindingdb.org/bind/chemsearch/marvin/MolStructure.jsp?monomerid=193999

>  <LinkName>  (204) 
|ChemSpider|ChEMBL|PubChem|ZINC|BindingDB

>  <lig_pdb_ID>  (204) 


>  <pdb_IDs>  (204) 


>  <indicationDB>  (204) 


>  <uniprotId>  (204) 


>  <indicationG2P>  (204) 


>  <MW>  (204) 
377.1

>  <HBA>  (204) 
6

>  <HBD>  (204) 
1

>  <NRB>  (204) 
4

>  <TPSA>  (204) 
85.3

>  <LogP>  (204) 
3.8

>  <RoF>  (204) 
0

>  <Melting point>  (204) 
nan

>  <Targets>  (204) 
nan

>  <Kinase families>  (204) 


>  <FDA_approved>  (204) 


$$$$
Pifusertib
     RDKit          2D

 32 37  0  0  0  0  0  0  0  0999 V2000
   -8.2439    1.8327    0.0000 C   0  0  0  0  0  0  0  0  0  0  0  0
   -6.7441    1.8129    0.0000 C   0  0  0  0  0  0  0  0  0  0  0  0
   -6.7242    3.3127    0.0000 O   0  0  0  0  0  0  0  0  0  0  0  0
   -5.2442    1.7930    0.0000 C   0  0  0  0  0  0  0  0  0  0  0  0
   -5.2641    0.2931    0.0000 C   0  0  0  0  0  0  0  0  0  0  0  0
   -5.2839   -1.2067    0.0000 N   0  0  0  0  0  0  0  0  0  0  0  0
   -3.7642    0.2733    0.0000 C   0  0  0  0  0  0  0  0  0  0  0  0
   -3.0314   -1.0356    0.0000 C   0  0  0  0  0  0  0  0  0  0  0  0
   -1.5316   -1.0554    0.0000 C   0  0  0  0  0  0  0  0  0  0  0  0
   -0.7645    0.2336    0.0000 C   0  0  0  0  0  0  0  0  0  0  0  0
    0.7354    0.2137    0.0000 C   0  0  0  0  0  0  0  0  0  0  0  0
    1.6331    1.4155    0.0000 N   0  0  0  0  0  0  0  0  0  0  0  0
    3.0534    0.9331    0.0000 C   0  0  0  0  0  0  0  0  0  0  0  0
    3.0335   -0.5668    0.0000 N   0  0  0  0  0  0  0  0  0  0  0  0
    1.6010   -1.0114    0.0000 C   0  0  0  0  0  0  0  0  0  0  0  0
    1.1186   -2.4317    0.0000 C   0  0  0  0  0  0  0  0  0  0  0  0
   -0.3526   -2.7241    0.0000 C   0  0  0  0  0  0  0  0  0  0  0  0
   -0.8350   -4.1444    0.0000 C   0  0  0  0  0  0  0  0  0  0  0  0
    0.1539   -5.2723    0.0000 C   0  0  0  0  0  0  0  0  0  0  0  0
    1.6251   -4.9799    0.0000 C   0  0  0  0  0  0  0  0  0  0  0  0
    2.1074   -3.5596    0.0000 C   0  0  0  0  0  0  0  0  0  0  0  0
    4.3225   -1.3339    0.0000 C   0  0  0  0  0  0  0  0  0  0  0  0
    5.6314   -0.6011    0.0000 O   0  0  0  0  0  0  0  0  0  0  0  0
    5.6512    0.8987    0.0000 C   0  0  0  0  0  0  0  0  0  0  0  0
    6.9601    1.6315    0.0000 C   0  0  0  0  0  0  0  0  0  0  0  0
    6.9800    3.1313    0.0000 C   0  0  0  0  0  0  0  0  0  0  0  0
    5.6910    3.8985    0.0000 N   0  0  0  0  0  0  0  0  0  0  0  0
    4.3821    3.1657    0.0000 C   0  0  0  0  0  0  0  0  0  0  0  0
    4.3623    1.6659    0.0000 C   0  0  0  0  0  0  0  0  0  0  0  0
   -1.4972    1.5424    0.0000 C   0  0  0  0  0  0  0  0  0  0  0  0
   -2.9971    1.5623    0.0000 C   0  0  0  0  0  0  0  0  0  0  0  0
   -6.7639    0.3130    0.0000 C   0  0  0  0  0  0  0  0  0  0  0  0
  2  1  1  6
  2  3  1  0
  2  4  1  0
  4  5  1  0
  5  6  1  6
  5  7  1  0
  7  8  2  0
  8  9  1  0
  9 10  2  0
 10 11  1  0
 11 12  1  0
 12 13  2  0
 13 14  1  0
 14 15  1  0
 15 16  1  0
 16 17  2  0
 17 18  1  0
 18 19  2  0
 19 20  1  0
 20 21  2  0
 14 22  1  0
 22 23  1  0
 23 24  1  0
 24 25  2  0
 25 26  1  0
 26 27  2  0
 27 28  1  0
 28 29  2  0
 10 30  1  0
 30 31  2  0
  5 32  1  0
 32  2  1  0
 31  7  1  0
 15 11  2  0
 21 16  1  0
 29 24  1  0
 29 13  1  0
M  END
>  <BrandName>  (205) 


>  <Applicants>  (205) 
Taiho Pharmaceutical

>  <CHEMBL_ID>  (205) 
CHEMBL4297329

>  <Canonical_Smiles>  (205) 
C[C@]1(O)C[C@@](N)(c2ccc(-c3nc4n(c3-c3ccccc3)COc3ccncc3-4)cc2)C1

>  <Chirality>  (205) 
Single Stereoisomer

>  <First_Approval>  (205) 
nan

>  <Phase>  (205) 
2.0

>  <SC_Patent>  (205) 
nan

>  <Synonyms>  (205) 
PIFUSERTIB|TAS 117|TAS-117

>  <Withdrawn>  (205) 
nan

>  <Indications>  (205) 
nan

>  <Type>  (205) 
nan

>  <targets_id>  (205) 
nan

>  <Inchi>  (205) 
InChI=1S/C26H24N4O2/c1-25(31)14-26(27,15-25)19-9-7-17(8-10-19)22-23(18-5-3-2-4-6-18)30-16-32-21-11-12-28-13-20(21)24(30)29-22/h2-13,31H,14-16,27H2,1H3/t25-,26-

>  <stdInchikey>  (205) 
AIFGVDXMHWGOGJ-DIVCQZSQSA-N

>  <csid>  (205) 
64854605

>  <Links>  (205) 
|http://www.chemspider.com/Chemical-Structure.64854605.html

>  <LinkName>  (205) 
|ChemSpider

>  <lig_pdb_ID>  (205) 


>  <pdb_IDs>  (205) 


>  <indicationDB>  (205) 


>  <uniprotId>  (205) 


>  <indicationG2P>  (205) 


>  <MW>  (205) 
424.2

>  <HBA>  (205) 
6

>  <HBD>  (205) 
2

>  <NRB>  (205) 
3

>  <TPSA>  (205) 
86.2

>  <LogP>  (205) 
4.3

>  <RoF>  (205) 
0

>  <Melting point>  (205) 
nan

>  <Targets>  (205) 
nan

>  <Kinase families>  (205) 


>  <FDA_approved>  (205) 


$$$$
Altiratinib
     RDKit          2D

 37 41  0  0  0  0  0  0  0  0999 V2000
   -5.4916    1.7164    0.0000 C   0  0  0  0  0  0  0  0  0  0  0  0
   -5.9257    3.1523    0.0000 C   0  0  0  0  0  0  0  0  0  0  0  0
   -4.8993    4.2461    0.0000 C   0  0  0  0  0  0  0  0  0  0  0  0
   -3.4388    3.9042    0.0000 C   0  0  0  0  0  0  0  0  0  0  0  0
   -3.0047    2.4684    0.0000 C   0  0  0  0  0  0  0  0  0  0  0  0
   -4.0311    1.3745    0.0000 C   0  0  0  0  0  0  0  0  0  0  0  0
   -3.5969   -0.0613    0.0000 N   0  0  0  0  0  0  0  0  0  0  0  0
   -4.6233   -1.1552    0.0000 C   0  0  0  0  0  0  0  0  0  0  0  0
   -6.0838   -0.8132    0.0000 O   0  0  0  0  0  0  0  0  0  0  0  0
   -4.1892   -2.5910    0.0000 C   0  0  0  0  0  0  0  0  0  0  0  0
   -4.2723   -4.0887    0.0000 C   0  0  0  0  0  0  0  0  0  0  0  0
   -5.5278   -3.2678    0.0000 C   0  0  0  0  0  0  0  0  0  0  0  0
   -2.6998   -2.4128    0.0000 C   0  0  0  0  0  0  0  0  0  0  0  0
   -2.1095   -1.0338    0.0000 O   0  0  0  0  0  0  0  0  0  0  0  0
   -1.8008   -3.6135    0.0000 N   0  0  0  0  0  0  0  0  0  0  0  0
   -0.3114   -3.4353    0.0000 C   0  0  0  0  0  0  0  0  0  0  0  0
    0.5876   -4.6360    0.0000 C   0  0  0  0  0  0  0  0  0  0  0  0
    2.0770   -4.4578    0.0000 C   0  0  0  0  0  0  0  0  0  0  0  0
    2.6673   -3.0789    0.0000 C   0  0  0  0  0  0  0  0  0  0  0  0
    1.7683   -1.8781    0.0000 C   0  0  0  0  0  0  0  0  0  0  0  0
    0.2789   -2.0563    0.0000 C   0  0  0  0  0  0  0  0  0  0  0  0
   -0.6201   -0.8556    0.0000 F   0  0  0  0  0  0  0  0  0  0  0  0
    4.1567   -2.9006    0.0000 O   0  0  0  0  0  0  0  0  0  0  0  0
    4.7471   -1.5217    0.0000 C   0  0  0  0  0  0  0  0  0  0  0  0
    6.2364   -1.3435    0.0000 C   0  0  0  0  0  0  0  0  0  0  0  0
    6.8268    0.0354    0.0000 C   0  0  0  0  0  0  0  0  0  0  0  0
    5.9278    1.2362    0.0000 N   0  0  0  0  0  0  0  0  0  0  0  0
    4.4384    1.0580    0.0000 C   0  0  0  0  0  0  0  0  0  0  0  0
    3.8480   -0.3210    0.0000 C   0  0  0  0  0  0  0  0  0  0  0  0
    3.5394    2.2587    0.0000 N   0  0  0  0  0  0  0  0  0  0  0  0
    4.1297    3.6376    0.0000 C   0  0  0  0  0  0  0  0  0  0  0  0
    5.6191    3.8159    0.0000 O   0  0  0  0  0  0  0  0  0  0  0  0
    3.2307    4.8384    0.0000 C   0  0  0  0  0  0  0  0  0  0  0  0
    1.8518    5.4287    0.0000 C   0  0  0  0  0  0  0  0  0  0  0  0
    3.0525    6.3278    0.0000 C   0  0  0  0  0  0  0  0  0  0  0  0
    2.9760   -5.6585    0.0000 F   0  0  0  0  0  0  0  0  0  0  0  0
   -5.3335    5.6819    0.0000 F   0  0  0  0  0  0  0  0  0  0  0  0
  1  2  2  0
  2  3  1  0
  3  4  2  0
  4  5  1  0
  5  6  2  0
  6  7  1  0
  7  8  1  0
  8  9  2  0
  8 10  1  0
 10 11  1  0
 11 12  1  0
 10 13  1  0
 13 14  2  0
 13 15  1  0
 15 16  1  0
 16 17  2  0
 17 18  1  0
 18 19  2  0
 19 20  1  0
 20 21  2  0
 21 22  1  0
 19 23  1  0
 23 24  1  0
 24 25  2  0
 25 26  1  0
 26 27  2  0
 27 28  1  0
 28 29  2  0
 28 30  1  0
 30 31  1  0
 31 32  2  0
 31 33  1  0
 33 34  1  0
 34 35  1  0
 18 36  1  0
  3 37  1  0
  6  1  1  0
 12 10  1  0
 21 16  1  0
 29 24  1  0
 35 33  1  0
M  END
>  <BrandName>  (206) 


>  <Applicants>  (206) 
Deciphera Pharmaceuticals

>  <CHEMBL_ID>  (206) 
CHEMBL3545365

>  <Canonical_Smiles>  (206) 
c1cc(ccc1NC(=O)C2(CC2)C(=O)Nc3cc(c(cc3F)Oc4ccnc(c4)NC(=O)C5CC5)F)F

>  <Chirality>  (206) 
Achiral Molecule

>  <First_Approval>  (206) 
nan

>  <Phase>  (206) 
2.0

>  <SC_Patent>  (206) 
nan

>  <Synonyms>  (206) 
ALTIRATINIB | DCC-2701 | DP-5164

>  <Withdrawn>  (206) 
nan

>  <Indications>  (206) 
nan

>  <Type>  (206) 
nan

>  <targets_id>  (206) 
P08581|Q02763|P35968|P04629

>  <Inchi>  (206) 
InChI=1S/C26H21F3N4O4/c27-15-3-5-16(6-4-15)31-24(35)26(8-9-26)25(36)32-20-12-19(29)21(13-18(20)28)37-17-7-10-30-22(11-17)33-23(34)14-1-2-14/h3-7,10-14H,1-2,8-9H2,(H,31,35)(H,32,36)(H,30,33,34)

>  <stdInchikey>  (206) 
GNNDEPIMDAZHRQ-UHFFFAOYSA-N

>  <csid>  (206) 
33427355

>  <Links>  (206) 
|http://www.chemspider.com/Chemical-Structure.33427355.html|https://www.ebi.ac.uk/chembldb/compound/inspect/CHEMBL3545365|https://pubchem.ncbi.nlm.nih.gov/compound/54576299|https://go.drugbank.com/drugs/DB17191|https://www.rcsb.org/ligand/A9I|https://www.ebi.ac.uk/pdbe-srv/pdbechem/chemicalCompound/show/A9I|https://www.guidetopharmacology.org/GRAC/LigandDisplayForward?9174|https://zinc15.docking.org/substances/ZINC000113198271|https://precision.fda.gov/uniisearch/srs/unii/T678746713|https://www.bindingdb.org/bind/chemsearch/marvin/MolStructure.jsp?monomerid=50193395

>  <LinkName>  (206) 
|ChemSpider|ChEMBL|PubChem|DrugBank|RCSB|PDBe|Guide to Pharmacology|ZINC|FDA SRS|BindingDB

>  <lig_pdb_ID>  (206) 
A9I

>  <pdb_IDs>  (206) 
7q4a

>  <indicationDB>  (206) 


>  <uniprotId>  (206) 


>  <indicationG2P>  (206) 
None

>  <MW>  (206) 
510.2

>  <HBA>  (206) 
5

>  <HBD>  (206) 
3

>  <NRB>  (206) 
8

>  <TPSA>  (206) 
109.4

>  <LogP>  (206) 
5.0

>  <RoF>  (206) 
1

>  <Melting point>  (206) 
nan

>  <Targets>  (206) 
MET; TEK; KDR; NTRK1

>  <Kinase families>  (206) 
Tyr

>  <FDA_approved>  (206) 


$$$$
Dalmelitinib
     RDKit          2D

 33 38  0  0  0  0  0  0  0  0999 V2000
   -8.7499    0.6919    0.0000 C   0  0  0  0  0  0  0  0  0  0  0  0
   -7.3244    1.1590    0.0000 N   0  0  0  0  0  0  0  0  0  0  0  0
   -7.0162    2.6269    0.0000 C   0  0  0  0  0  0  0  0  0  0  0  0
   -8.1333    3.6279    0.0000 O   0  0  0  0  0  0  0  0  0  0  0  0
   -5.5907    3.0940    0.0000 C   0  0  0  0  0  0  0  0  0  0  0  0
   -4.4735    2.0930    0.0000 O   0  0  0  0  0  0  0  0  0  0  0  0
   -4.7818    0.6250    0.0000 C   0  0  0  0  0  0  0  0  0  0  0  0
   -6.2072    0.1580    0.0000 C   0  0  0  0  0  0  0  0  0  0  0  0
   -6.5155   -1.3100    0.0000 C   0  0  0  0  0  0  0  0  0  0  0  0
   -5.3983   -2.3109    0.0000 N   0  0  0  0  0  0  0  0  0  0  0  0
   -3.9729   -1.8439    0.0000 C   0  0  0  0  0  0  0  0  0  0  0  0
   -2.8557   -2.8448    0.0000 C   0  0  0  0  0  0  0  0  0  0  0  0
   -1.4303   -2.3778    0.0000 C   0  0  0  0  0  0  0  0  0  0  0  0
   -1.1220   -0.9098    0.0000 C   0  0  0  0  0  0  0  0  0  0  0  0
    0.3034   -0.4428    0.0000 S   0  0  0  0  0  0  0  0  0  0  0  0
    1.4206   -1.4438    0.0000 C   0  0  0  0  0  0  0  0  0  0  0  0
    1.2675   -2.9359    0.0000 N   0  0  0  0  0  0  0  0  0  0  0  0
    2.6393   -3.5426    0.0000 N   0  0  0  0  0  0  0  0  0  0  0  0
    3.6403   -2.4255    0.0000 C   0  0  0  0  0  0  0  0  0  0  0  0
    5.1403   -2.4218    0.0000 C   0  0  0  0  0  0  0  0  0  0  0  0
    5.8935   -3.7190    0.0000 F   0  0  0  0  0  0  0  0  0  0  0  0
    5.8871   -1.1209    0.0000 C   0  0  0  0  0  0  0  0  0  0  0  0
    5.1339    0.1763    0.0000 C   0  0  0  0  0  0  0  0  0  0  0  0
    5.8807    1.4772    0.0000 C   0  0  0  0  0  0  0  0  0  0  0  0
    5.2672    2.8460    0.0000 C   0  0  0  0  0  0  0  0  0  0  0  0
    6.3794    3.8524    0.0000 N   0  0  0  0  0  0  0  0  0  0  0  0
    7.6803    3.1056    0.0000 N   0  0  0  0  0  0  0  0  0  0  0  0
    9.0491    3.7191    0.0000 C   0  0  0  0  0  0  0  0  0  0  0  0
    7.3721    1.6376    0.0000 C   0  0  0  0  0  0  0  0  0  0  0  0
    3.6339    0.1726    0.0000 C   0  0  0  0  0  0  0  0  0  0  0  0
    2.8871   -1.1283    0.0000 N   0  0  0  0  0  0  0  0  0  0  0  0
   -2.2392    0.0911    0.0000 C   0  0  0  0  0  0  0  0  0  0  0  0
   -3.6646   -0.3759    0.0000 C   0  0  0  0  0  0  0  0  0  0  0  0
  1  2  1  0
  2  3  1  0
  3  4  2  0
  3  5  1  0
  5  6  1  0
  6  7  1  0
  7  8  2  0
  8  9  1  0
  9 10  2  0
 10 11  1  0
 11 12  2  0
 12 13  1  0
 13 14  2  0
 14 15  1  0
 15 16  1  0
 16 17  2  0
 17 18  1  0
 18 19  2  0
 19 20  1  0
 20 21  1  0
 20 22  2  0
 22 23  1  0
 23 24  1  0
 24 25  1  0
 25 26  2  0
 26 27  1  0
 27 28  1  0
 27 29  1  0
 23 30  2  0
 30 31  1  0
 14 32  1  0
 32 33  2  0
  8  2  1  0
 33 11  1  0
 33  7  1  0
 31 16  1  0
 31 19  1  0
 29 24  2  0
M  END
>  <BrandName>  (207) 


>  <Applicants>  (207) 
Jiangsu Hansoh Pharmaceutical

>  <CHEMBL_ID>  (207) 
CHEMBL3818247

>  <Canonical_Smiles>  (207) 
CN1C(=O)COc2c1cnc1ccc(Sc3nnc4c(F)cc(-c5cnn(C)c5)cn34)cc21

>  <Chirality>  (207) 
Achiral Molecule

>  <First_Approval>  (207) 
nan

>  <Phase>  (207) 
2.0

>  <SC_Patent>  (207) 
nan

>  <Synonyms>  (207) 
DALMELITINIB

>  <Withdrawn>  (207) 
nan

>  <Indications>  (207) 
nan

>  <Type>  (207) 
nan

>  <targets_id>  (207) 
nan

>  <Inchi>  (207) 
InChI=1S/C22H16FN7O2S/c1-28-9-13(7-25-28)12-5-16(23)21-26-27-22(30(21)10-12)33-14-3-4-17-15(6-14)20-18(8-24-17)29(2)19(31)11-32-20/h3-10H,11H2,1-2H3

>  <stdInchikey>  (207) 
MFEXYTURXUZOID-UHFFFAOYSA-N

>  <csid>  (207) 
58880647

>  <Links>  (207) 
|http://www.chemspider.com/Chemical-Structure.58880647.html|https://www.ebi.ac.uk/chembldb/compound/inspect/CHEMBL3818247|https://pubchem.ncbi.nlm.nih.gov/compound/86302574|https://zinc15.docking.org/substances/ZINC000221146611|https://www.bindingdb.org/bind/chemsearch/marvin/MolStructure.jsp?monomerid=50182493

>  <LinkName>  (207) 
|ChemSpider|ChEMBL|PubChem|ZINC|BindingDB

>  <lig_pdb_ID>  (207) 


>  <pdb_IDs>  (207) 


>  <indicationDB>  (207) 


>  <uniprotId>  (207) 


>  <indicationG2P>  (207) 


>  <MW>  (207) 
461.1

>  <HBA>  (207) 
9

>  <HBD>  (207) 
0

>  <NRB>  (207) 
3

>  <TPSA>  (207) 
90.4

>  <LogP>  (207) 
3.3

>  <RoF>  (207) 
0

>  <Melting point>  (207) 
nan

>  <Targets>  (207) 
nan

>  <Kinase families>  (207) 


>  <FDA_approved>  (207) 


$$$$
Cinsebrutinib
     RDKit          2D

 28 31  0  0  0  0  0  0  0  0999 V2000
   -7.7635   -0.3742    0.0000 C   0  0  0  0  0  0  0  0  0  0  0  0
   -6.4268    0.3063    0.0000 C   0  0  0  0  0  0  0  0  0  0  0  0
   -5.1690   -0.5111    0.0000 C   0  0  0  0  0  0  0  0  0  0  0  0
   -5.2481   -2.0090    0.0000 O   0  0  0  0  0  0  0  0  0  0  0  0
   -3.8323    0.1694    0.0000 N   0  0  0  0  0  0  0  0  0  0  0  0
   -3.7533    1.6674    0.0000 C   0  0  0  0  0  0  0  0  0  0  0  0
   -2.4165    2.3479    0.0000 C   0  0  0  0  0  0  0  0  0  0  0  0
   -1.1588    1.5305    0.0000 C   0  0  0  0  0  0  0  0  0  0  0  0
   -1.2378    0.0326    0.0000 C   0  0  0  0  0  0  0  0  0  0  0  0
    0.0199   -0.7848    0.0000 C   0  0  0  0  0  0  0  0  0  0  0  0
   -0.0591   -2.2827    0.0000 C   0  0  0  0  0  0  0  0  0  0  0  0
   -1.3959   -2.9633    0.0000 F   0  0  0  0  0  0  0  0  0  0  0  0
    1.1986   -3.1001    0.0000 C   0  0  0  0  0  0  0  0  0  0  0  0
    2.5353   -2.4196    0.0000 C   0  0  0  0  0  0  0  0  0  0  0  0
    3.7931   -3.2370    0.0000 C   0  0  0  0  0  0  0  0  0  0  0  0
    3.7140   -4.7349    0.0000 N   0  0  0  0  0  0  0  0  0  0  0  0
    5.1298   -2.5565    0.0000 O   0  0  0  0  0  0  0  0  0  0  0  0
    2.6144   -0.9217    0.0000 C   0  0  0  0  0  0  0  0  0  0  0  0
    3.7804    0.0219    0.0000 N   0  0  0  0  0  0  0  0  0  0  0  0
    3.2433    1.4224    0.0000 C   0  0  0  0  0  0  0  0  0  0  0  0
    1.7454    1.3445    0.0000 C   0  0  0  0  0  0  0  0  0  0  0  0
    1.3566   -0.1043    0.0000 C   0  0  0  0  0  0  0  0  0  0  0  0
    0.7504    2.4670    0.0000 C   0  0  0  0  0  0  0  0  0  0  0  0
    1.0077    3.9448    0.0000 C   0  0  0  0  0  0  0  0  0  0  0  0
    2.3235    4.6650    0.0000 C   0  0  0  0  0  0  0  0  0  0  0  0
    3.7070    4.0853    0.0000 C   0  0  0  0  0  0  0  0  0  0  0  0
    4.1163    2.6422    0.0000 C   0  0  0  0  0  0  0  0  0  0  0  0
   -2.5746   -0.6479    0.0000 C   0  0  0  0  0  0  0  0  0  0  0  0
  1  2  2  0
  2  3  1  0
  3  4  2  0
  3  5  1  0
  5  6  1  0
  6  7  1  0
  7  8  1  0
  8  9  1  0
  9 10  1  1
 10 11  2  0
 11 12  1  0
 11 13  1  0
 13 14  2  0
 14 15  1  0
 15 16  1  0
 15 17  2  0
 14 18  1  0
 18 19  1  0
 19 20  1  0
 20 21  2  0
 21 22  1  0
 21 23  1  0
 23 24  1  0
 24 25  1  0
 25 26  1  0
 26 27  1  0
  9 28  1  0
 28  5  1  0
 22 10  1  0
 22 18  2  0
 27 20  1  0
M  END
>  <BrandName>  (208) 


>  <Applicants>  (208) 
('',)

>  <CHEMBL_ID>  (208) 
CHEMBL5314511

>  <Canonical_Smiles>  (208) 
C=CC(=O)N1CCC[C@@H](c2c(F)cc(C(N)=O)c3[nH]c4c(c23)CCCCC4)C1

>  <Chirality>  (208) 
Unknown

>  <First_Approval>  (208) 
nan

>  <Phase>  (208) 
2.0

>  <SC_Patent>  (208) 
nan

>  <Synonyms>  (208) 
CINSEBRUTINIB

>  <Withdrawn>  (208) 
nan

>  <Indications>  (208) 
nan

>  <Type>  (208) 
nan

>  <targets_id>  (208) 
nan

>  <Inchi>  (208) 
InChI=1S/C22H26FN3O2/c1-2-18(27)26-10-6-7-13(12-26)19-16(23)11-15(22(24)28)21-20(19)14-8-4-3-5-9-17(14)25-21/h2,11,13,25H,1,3-10,12H2,(H2,24,28)/t13-/m1/s1

>  <stdInchikey>  (208) 
NEHJPDSXWUIXGI-CYBMUJFWSA-N

>  <csid>  (208) 
nan

>  <Links>  (208) 
|http://www.chemspider.com/Chemical-Structure.nan.html|https://www.ebi.ac.uk/chembldb/compound/inspect/CHEMBL5314511|https://pubchem.ncbi.nlm.nih.gov/compound/156888508

>  <LinkName>  (208) 
|ChemSpider|ChEMBL|PubChem

>  <lig_pdb_ID>  (208) 


>  <pdb_IDs>  (208) 


>  <indicationDB>  (208) 


>  <uniprotId>  (208) 


>  <indicationG2P>  (208) 


>  <MW>  (208) 
383.2

>  <HBA>  (208) 
2

>  <HBD>  (208) 
2

>  <NRB>  (208) 
3

>  <TPSA>  (208) 
79.2

>  <LogP>  (208) 
3.6

>  <RoF>  (208) 
0

>  <Melting point>  (208) 
nan

>  <Targets>  (208) 
nan

>  <Kinase families>  (208) 


>  <FDA_approved>  (208) 


$$$$
Telatinib
     RDKit          2D

 29 32  0  0  0  0  0  0  0  0999 V2000
   -7.1929    4.3811    0.0000 C   0  0  0  0  0  0  0  0  0  0  0  0
   -6.3118    3.1671    0.0000 N   0  0  0  0  0  0  0  0  0  0  0  0
   -6.9227    1.7971    0.0000 C   0  0  0  0  0  0  0  0  0  0  0  0
   -8.4146    1.6412    0.0000 O   0  0  0  0  0  0  0  0  0  0  0  0
   -6.0417    0.5831    0.0000 C   0  0  0  0  0  0  0  0  0  0  0  0
   -4.5498    0.7391    0.0000 C   0  0  0  0  0  0  0  0  0  0  0  0
   -3.6688   -0.4749    0.0000 C   0  0  0  0  0  0  0  0  0  0  0  0
   -4.2796   -1.8449    0.0000 C   0  0  0  0  0  0  0  0  0  0  0  0
   -5.7715   -2.0009    0.0000 C   0  0  0  0  0  0  0  0  0  0  0  0
   -6.6525   -0.7868    0.0000 N   0  0  0  0  0  0  0  0  0  0  0  0
   -2.1769   -0.3189    0.0000 C   0  0  0  0  0  0  0  0  0  0  0  0
   -1.2959   -1.5329    0.0000 O   0  0  0  0  0  0  0  0  0  0  0  0
    0.1960   -1.3769    0.0000 C   0  0  0  0  0  0  0  0  0  0  0  0
    1.0770   -2.5909    0.0000 C   0  0  0  0  0  0  0  0  0  0  0  0
    2.5689   -2.4349    0.0000 C   0  0  0  0  0  0  0  0  0  0  0  0
    3.1782   -3.8056    0.0000 C   0  0  0  0  0  0  0  0  0  0  0  0
    2.0630   -4.8087    0.0000 C   0  0  0  0  0  0  0  0  0  0  0  0
    0.7643   -4.0580    0.0000 O   0  0  0  0  0  0  0  0  0  0  0  0
    3.1797   -1.0649    0.0000 C   0  0  0  0  0  0  0  0  0  0  0  0
    2.2987    0.1491    0.0000 N   0  0  0  0  0  0  0  0  0  0  0  0
    0.8068   -0.0069    0.0000 N   0  0  0  0  0  0  0  0  0  0  0  0
    4.6716   -0.9090    0.0000 N   0  0  0  0  0  0  0  0  0  0  0  0
    5.2824    0.4610    0.0000 C   0  0  0  0  0  0  0  0  0  0  0  0
    6.7743    0.6170    0.0000 C   0  0  0  0  0  0  0  0  0  0  0  0
    7.3851    1.9870    0.0000 C   0  0  0  0  0  0  0  0  0  0  0  0
    6.5041    3.2010    0.0000 C   0  0  0  0  0  0  0  0  0  0  0  0
    5.0122    3.0450    0.0000 C   0  0  0  0  0  0  0  0  0  0  0  0
    4.4014    1.6750    0.0000 C   0  0  0  0  0  0  0  0  0  0  0  0
    7.1150    4.5710    0.0000 Cl  0  0  0  0  0  0  0  0  0  0  0  0
  1  2  1  0
  2  3  1  0
  3  4  2  0
  3  5  1  0
  5  6  2  0
  6  7  1  0
  7  8  2  0
  8  9  1  0
  9 10  2  0
  7 11  1  0
 11 12  1  0
 12 13  1  0
 13 14  1  0
 14 15  2  0
 15 16  1  0
 16 17  2  0
 17 18  1  0
 15 19  1  0
 19 20  2  0
 20 21  1  0
 19 22  1  0
 22 23  1  0
 23 24  2  0
 24 25  1  0
 25 26  2  0
 26 27  1  0
 27 28  2  0
 26 29  1  0
 10  5  1  0
 21 13  2  0
 18 14  1  0
 28 23  1  0
M  END
>  <BrandName>  (209) 


>  <Applicants>  (209) 
Bayer

>  <CHEMBL_ID>  (209) 
CHEMBL2079588

>  <Canonical_Smiles>  (209) 
CNC(=O)c1cc(ccn1)COc2c3c(cco3)c(nn2)Nc4ccc(cc4)Cl

>  <Chirality>  (209) 
Achiral Molecule

>  <First_Approval>  (209) 
nan

>  <Phase>  (209) 
2.0

>  <SC_Patent>  (209) 
nan

>  <Synonyms>  (209) 
BAY 57-9352 | BAY-57-9352 | BAY-579352 | TELATINIB

>  <Withdrawn>  (209) 
nan

>  <Indications>  (209) 
nan

>  <Type>  (209) 
nan

>  <targets_id>  (209) 
P35968|P35916

>  <Inchi>  (209) 
InChI=1S/C20H16ClN5O3/c1-22-19(27)16-10-12(6-8-23-16)11-29-20-17-15(7-9-28-17)18(25-26-20)24-14-4-2-13(21)3-5-14/h2-10H,11H2,1H3,(H,22,27)(H,24,25)

>  <stdInchikey>  (209) 
QFCXANHHBCGMAS-UHFFFAOYSA-N

>  <csid>  (209) 
7984603

>  <Links>  (209) 
|http://www.chemspider.com/Chemical-Structure.7984603.html|https://www.ebi.ac.uk/chembldb/compound/inspect/CHEMBL2079588|https://pubchem.ncbi.nlm.nih.gov/compound/9808844|https://go.drugbank.com/drugs/DB15393|https://www.guidetopharmacology.org/GRAC/LigandDisplayForward?10476|https://zinc15.docking.org/substances/ZINC000000590964|https://precision.fda.gov/uniisearch/srs/unii/18P7197Q7J|https://www.bindingdb.org/bind/chemsearch/marvin/MolStructure.jsp?monomerid=50399538

>  <LinkName>  (209) 
|ChemSpider|ChEMBL|PubChem|DrugBank|Guide to Pharmacology|ZINC|FDA SRS|BindingDB

>  <lig_pdb_ID>  (209) 


>  <pdb_IDs>  (209) 


>  <indicationDB>  (209) 


>  <uniprotId>  (209) 


>  <indicationG2P>  (209) 
None

>  <MW>  (209) 
409.1

>  <HBA>  (209) 
7

>  <HBD>  (209) 
2

>  <NRB>  (209) 
6

>  <TPSA>  (209) 
102.2

>  <LogP>  (209) 
4.0

>  <RoF>  (209) 
0

>  <Melting point>  (209) 
nan

>  <Targets>  (209) 
KDR; FLT4

>  <Kinase families>  (209) 
Tyr

>  <FDA_approved>  (209) 


$$$$
Ebvaciclib
     RDKit          2D

 32 35  0  0  0  0  0  0  0  0999 V2000
   -1.2904    3.7061    0.0000 C   0  0  0  0  0  0  0  0  0  0  0  0
   -2.5197    2.8466    0.0000 C   0  0  0  0  0  0  0  0  0  0  0  0
   -1.5364    1.7139    0.0000 O   0  0  0  0  0  0  0  0  0  0  0  0
   -3.2460    4.1591    0.0000 C   0  0  0  0  0  0  0  0  0  0  0  0
   -4.7186    3.8739    0.0000 C   0  0  0  0  0  0  0  0  0  0  0  0
   -4.9025    2.3852    0.0000 C   0  0  0  0  0  0  0  0  0  0  0  0
   -3.5435    1.7503    0.0000 C   0  0  0  0  0  0  0  0  0  0  0  0
   -3.2583    0.2777    0.0000 N   0  0  0  0  0  0  0  0  0  0  0  0
   -4.3911   -0.7056    0.0000 C   0  0  0  0  0  0  0  0  0  0  0  0
   -5.8090   -0.2162    0.0000 O   0  0  0  0  0  0  0  0  0  0  0  0
   -4.1060   -2.1782    0.0000 C   0  0  0  0  0  0  0  0  0  0  0  0
   -5.2387   -3.1615    0.0000 C   0  0  0  0  0  0  0  0  0  0  0  0
   -6.6567   -2.6721    0.0000 F   0  0  0  0  0  0  0  0  0  0  0  0
   -4.9536   -4.6342    0.0000 F   0  0  0  0  0  0  0  0  0  0  0  0
   -2.6880   -2.6676    0.0000 C   0  0  0  0  0  0  0  0  0  0  0  0
   -1.5553   -1.6843    0.0000 C   0  0  0  0  0  0  0  0  0  0  0  0
   -0.1373   -2.1737    0.0000 C   0  0  0  0  0  0  0  0  0  0  0  0
    0.9954   -1.1904    0.0000 N   0  0  0  0  0  0  0  0  0  0  0  0
    0.7103    0.2822    0.0000 C   0  0  0  0  0  0  0  0  0  0  0  0
    1.8431    1.2655    0.0000 N   0  0  0  0  0  0  0  0  0  0  0  0
    3.2610    0.7761    0.0000 C   0  0  0  0  0  0  0  0  0  0  0  0
    3.5461   -0.6965    0.0000 C   0  0  0  0  0  0  0  0  0  0  0  0
    4.9641   -1.1859    0.0000 C   0  0  0  0  0  0  0  0  0  0  0  0
    6.0968   -0.2026    0.0000 N   0  0  0  0  0  0  0  0  0  0  0  0
    7.5148   -0.6920    0.0000 S   0  0  0  0  0  0  0  0  0  0  0  0
    8.9327   -1.1813    0.0000 C   0  0  0  0  0  0  0  0  0  0  0  0
    8.0041    0.7260    0.0000 O   0  0  0  0  0  0  0  0  0  0  0  0
    7.0254   -2.1099    0.0000 O   0  0  0  0  0  0  0  0  0  0  0  0
    5.8117    1.2700    0.0000 C   0  0  0  0  0  0  0  0  0  0  0  0
    4.3938    1.7594    0.0000 C   0  0  0  0  0  0  0  0  0  0  0  0
   -0.7076    0.7716    0.0000 N   0  0  0  0  0  0  0  0  0  0  0  0
   -1.8404   -0.2117    0.0000 C   0  0  0  0  0  0  0  0  0  0  0  0
  2  1  1  6
  2  3  1  0
  2  4  1  0
  4  5  1  0
  5  6  1  0
  6  7  1  0
  7  8  1  6
  8  9  1  0
  9 10  2  0
  9 11  1  0
 11 12  1  0
 12 13  1  0
 12 14  1  0
 11 15  2  0
 15 16  1  0
 16 17  2  0
 17 18  1  0
 18 19  2  0
 19 20  1  0
 20 21  1  0
 21 22  1  0
 22 23  1  0
 23 24  1  0
 24 25  1  0
 25 26  1  0
 25 27  2  0
 25 28  2  0
 24 29  1  0
 29 30  1  0
 19 31  1  0
 31 32  2  0
  7  2  1  0
 32  8  1  0
 32 16  1  0
 30 21  1  0
M  END
>  <BrandName>  (210) 


>  <Applicants>  (210) 
Pfizer

>  <CHEMBL_ID>  (210) 
CHEMBL4446357

>  <Canonical_Smiles>  (210) 
C[C@@]1(O)CCC[C@H]1n1c(=O)c(C(F)F)cc2cnc(NC3CCN(S(C)(=O)=O)CC3)nc21

>  <Chirality>  (210) 
Single Stereoisomer

>  <First_Approval>  (210) 
nan

>  <Phase>  (210) 
2.0

>  <SC_Patent>  (210) 
nan

>  <Synonyms>  (210) 
EBVACICLIB | PF-06873600

>  <Withdrawn>  (210) 
nan

>  <Indications>  (210) 
nan

>  <Type>  (210) 
nan

>  <targets_id>  (210) 
nan

>  <Inchi>  (210) 
InChI=1S/C20H27F2N5O4S/c1-20(29)7-3-4-15(20)27-17-12(10-14(16(21)22)18(27)28)11-23-19(25-17)24-13-5-8-26(9-6-13)32(2,30)31/h10-11,13,15-16,29H,3-9H2,1-2H3,(H,23,24,25)/t15-,20-/m1/s1

>  <stdInchikey>  (210) 
QIEKHLDZKRQLLN-FOIQADDNSA-N

>  <csid>  (210) 
71061508

>  <Links>  (210) 
|http://www.chemspider.com/Chemical-Structure.71061508.html|https://www.ebi.ac.uk/chembldb/compound/inspect/CHEMBL4446357|https://pubchem.ncbi.nlm.nih.gov/compound/134247638|https://www.rcsb.org/ligand/WG1|https://www.ebi.ac.uk/pdbe-srv/pdbechem/chemicalCompound/show/WG1|https://www.guidetopharmacology.org/GRAC/LigandDisplayForward?10426|https://precision.fda.gov/uniisearch/srs/unii/3B512HJD65|https://www.bindingdb.org/bind/chemsearch/marvin/MolStructure.jsp?monomerid=370121

>  <LinkName>  (210) 
|ChemSpider|ChEMBL|PubChem|RCSB|PDBe|Guide to Pharmacology|FDA SRS|BindingDB

>  <lig_pdb_ID>  (210) 
WG1

>  <pdb_IDs>  (210) 
7kjs

>  <indicationDB>  (210) 


>  <uniprotId>  (210) 


>  <indicationG2P>  (210) 
None

>  <MW>  (210) 
471.2

>  <HBA>  (210) 
8

>  <HBD>  (210) 
2

>  <NRB>  (210) 
5

>  <TPSA>  (210) 
117.4

>  <LogP>  (210) 
2.0

>  <RoF>  (210) 
0

>  <Melting point>  (210) 
nan

>  <Targets>  (210) 
nan

>  <Kinase families>  (210) 


>  <FDA_approved>  (210) 


$$$$
Tandutinib
     RDKit          2D

 41 45  0  0  0  0  0  0  0  0999 V2000
   13.9813    2.0599    0.0000 C   0  0  0  0  0  0  0  0  0  0  0  0
   12.6506    1.3675    0.0000 C   0  0  0  0  0  0  0  0  0  0  0  0
   12.5848   -0.1310    0.0000 C   0  0  0  0  0  0  0  0  0  0  0  0
   11.3857    2.1738    0.0000 O   0  0  0  0  0  0  0  0  0  0  0  0
   10.0550    1.4814    0.0000 C   0  0  0  0  0  0  0  0  0  0  0  0
    9.9893   -0.0171    0.0000 C   0  0  0  0  0  0  0  0  0  0  0  0
    8.6586   -0.7095    0.0000 C   0  0  0  0  0  0  0  0  0  0  0  0
    7.3937    0.0967    0.0000 C   0  0  0  0  0  0  0  0  0  0  0  0
    7.4594    1.5953    0.0000 C   0  0  0  0  0  0  0  0  0  0  0  0
    8.7901    2.2876    0.0000 C   0  0  0  0  0  0  0  0  0  0  0  0
    6.0630   -0.5956    0.0000 N   0  0  0  0  0  0  0  0  0  0  0  0
    4.7981    0.2106    0.0000 C   0  0  0  0  0  0  0  0  0  0  0  0
    4.8639    1.7092    0.0000 O   0  0  0  0  0  0  0  0  0  0  0  0
    3.4674   -0.4817    0.0000 N   0  0  0  0  0  0  0  0  0  0  0  0
    2.2025    0.3245    0.0000 C   0  0  0  0  0  0  0  0  0  0  0  0
    0.8719   -0.3678    0.0000 C   0  0  0  0  0  0  0  0  0  0  0  0
    0.8061   -1.8664    0.0000 N   0  0  0  0  0  0  0  0  0  0  0  0
    2.0710   -2.6726    0.0000 C   0  0  0  0  0  0  0  0  0  0  0  0
    3.4017   -1.9803    0.0000 C   0  0  0  0  0  0  0  0  0  0  0  0
   -0.5245   -2.5587    0.0000 C   0  0  0  0  0  0  0  0  0  0  0  0
   -1.7895   -1.7525    0.0000 C   0  0  0  0  0  0  0  0  0  0  0  0
   -1.7237   -0.2540    0.0000 C   0  0  0  0  0  0  0  0  0  0  0  0
   -2.9886    0.5523    0.0000 C   0  0  0  0  0  0  0  0  0  0  0  0
   -4.3193   -0.1401    0.0000 C   0  0  0  0  0  0  0  0  0  0  0  0
   -4.3850   -1.6386    0.0000 C   0  0  0  0  0  0  0  0  0  0  0  0
   -3.1201   -2.4449    0.0000 C   0  0  0  0  0  0  0  0  0  0  0  0
   -3.1859   -3.9434    0.0000 N   0  0  0  0  0  0  0  0  0  0  0  0
   -1.9210   -4.7496    0.0000 C   0  0  0  0  0  0  0  0  0  0  0  0
   -0.5903   -4.0573    0.0000 N   0  0  0  0  0  0  0  0  0  0  0  0
   -5.5842    0.6661    0.0000 O   0  0  0  0  0  0  0  0  0  0  0  0
   -6.9149   -0.0262    0.0000 C   0  0  0  0  0  0  0  0  0  0  0  0
   -8.1798    0.7800    0.0000 C   0  0  0  0  0  0  0  0  0  0  0  0
   -9.5105    0.0877    0.0000 C   0  0  0  0  0  0  0  0  0  0  0  0
  -10.7754    0.8939    0.0000 N   0  0  0  0  0  0  0  0  0  0  0  0
  -10.7096    2.3925    0.0000 C   0  0  0  0  0  0  0  0  0  0  0  0
  -11.9745    3.1987    0.0000 C   0  0  0  0  0  0  0  0  0  0  0  0
  -13.3052    2.5063    0.0000 C   0  0  0  0  0  0  0  0  0  0  0  0
  -13.3709    1.0078    0.0000 C   0  0  0  0  0  0  0  0  0  0  0  0
  -12.1060    0.2016    0.0000 C   0  0  0  0  0  0  0  0  0  0  0  0
   -2.9229    2.0508    0.0000 O   0  0  0  0  0  0  0  0  0  0  0  0
   -1.5922    2.7432    0.0000 C   0  0  0  0  0  0  0  0  0  0  0  0
  1  2  1  0
  2  3  1  0
  2  4  1  0
  4  5  1  0
  5  6  2  0
  6  7  1  0
  7  8  2  0
  8  9  1  0
  9 10  2  0
  8 11  1  0
 11 12  1  0
 12 13  2  0
 12 14  1  0
 14 15  1  0
 15 16  1  0
 16 17  1  0
 17 18  1  0
 18 19  1  0
 17 20  1  0
 20 21  1  0
 21 22  2  0
 22 23  1  0
 23 24  2  0
 24 25  1  0
 25 26  2  0
 26 27  1  0
 27 28  2  0
 28 29  1  0
 24 30  1  0
 30 31  1  0
 31 32  1  0
 32 33  1  0
 33 34  1  0
 34 35  1  0
 35 36  1  0
 36 37  1  0
 37 38  1  0
 38 39  1  0
 23 40  1  0
 40 41  1  0
 10  5  1  0
 19 14  1  0
 29 20  2  0
 26 21  1  0
 39 34  1  0
M  END
>  <BrandName>  (211) 


>  <Applicants>  (211) 
Takeda

>  <CHEMBL_ID>  (211) 
CHEMBL124660

>  <Canonical_Smiles>  (211) 
CC(C)Oc1ccc(cc1)NC(=O)N2CCN(CC2)c3c4cc(c(cc4ncn3)OCCCN5CCCCC5)OC

>  <Chirality>  (211) 
Achiral Molecule

>  <First_Approval>  (211) 
nan

>  <Phase>  (211) 
2.0

>  <SC_Patent>  (211) 
nan

>  <Synonyms>  (211) 
CT 53518 | CT-53518 | CT53518 | MLN-0518 | MLN-518 | NSC-759851 | TANDUTINIB

>  <Withdrawn>  (211) 
nan

>  <Indications>  (211) 
Investigated for use/treatment in leukemia (myeloid).

>  <Type>  (211) 
nan

>  <targets_id>  (211) 
P36888|Q9GZP0

>  <Inchi>  (211) 
InChI=1S/C31H42N6O4/c1-23(2)41-25-10-8-24(9-11-25)34-31(38)37-17-15-36(16-18-37)30-26-20-28(39-3)29(21-27(26)32-22-33-30)40-19-7-14-35-12-5-4-6-13-35/h8-11,20-23H,4-7,12-19H2,1-3H3,(H,34,38)

>  <stdInchikey>  (211) 
UXXQOJXBIDBUAC-UHFFFAOYSA-N

>  <csid>  (211) 
2302085

>  <Links>  (211) 
|http://www.chemspider.com/Chemical-Structure.2302085.html|https://www.ebi.ac.uk/chembldb/compound/inspect/CHEMBL124660|https://pubchem.ncbi.nlm.nih.gov/compound/3038522|https://go.drugbank.com/drugs/DB05465|https://zinc15.docking.org/substances/ZINC000003966243|https://precision.fda.gov/uniisearch/srs/unii/E1IO3ICJ9A|https://www.bindingdb.org/bind/chemsearch/marvin/MolStructure.jsp?monomerid=13535

>  <LinkName>  (211) 
|ChemSpider|ChEMBL|PubChem|DrugBank|ZINC|FDA SRS|BindingDB

>  <lig_pdb_ID>  (211) 


>  <pdb_IDs>  (211) 


>  <indicationDB>  (211) 


>  <uniprotId>  (211) 


>  <indicationG2P>  (211) 


>  <MW>  (211) 
562.3

>  <HBA>  (211) 
8

>  <HBD>  (211) 
1

>  <NRB>  (211) 
10

>  <TPSA>  (211) 
92.3

>  <LogP>  (211) 
5.0

>  <RoF>  (211) 
2

>  <Melting point>  (211) 
nan

>  <Targets>  (211) 
FLT3; PDGFD

>  <Kinase families>  (211) 
Tyr<br>(*)

>  <FDA_approved>  (211) 


$$$$
Flizasertib
     RDKit          2D

 20 23  0  0  0  0  0  0  0  0999 V2000
    3.0901    2.8685    0.0000 O   0  0  0  0  0  0  0  0  0  0  0  0
    3.2650    1.3788    0.0000 C   0  0  0  0  0  0  0  0  0  0  0  0
    2.0623    0.4824    0.0000 C   0  0  0  0  0  0  0  0  0  0  0  0
    2.0805   -1.0175    0.0000 N   0  0  0  0  0  0  0  0  0  0  0  0
    0.6597   -1.4983    0.0000 C   0  0  0  0  0  0  0  0  0  0  0  0
   -0.2367   -0.2956    0.0000 N   0  0  0  0  0  0  0  0  0  0  0  0
    0.6302    0.9285    0.0000 N   0  0  0  0  0  0  0  0  0  0  0  0
   -1.6575   -0.7765    0.0000 C   0  0  0  0  0  0  0  0  0  0  0  0
   -2.8817    0.0904    0.0000 C   0  0  0  0  0  0  0  0  0  0  0  0
   -2.7430    1.5840    0.0000 C   0  0  0  0  0  0  0  0  0  0  0  0
   -3.9672    2.4508    0.0000 C   0  0  0  0  0  0  0  0  0  0  0  0
   -5.3300    1.8241    0.0000 C   0  0  0  0  0  0  0  0  0  0  0  0
   -5.4686    0.3305    0.0000 C   0  0  0  0  0  0  0  0  0  0  0  0
   -4.2445   -0.5363    0.0000 C   0  0  0  0  0  0  0  0  0  0  0  0
   -1.6393   -2.2763    0.0000 C   0  0  0  0  0  0  0  0  0  0  0  0
   -0.2072   -2.7225    0.0000 C   0  0  0  0  0  0  0  0  0  0  0  0
    0.2737   -4.1433    0.0000 F   0  0  0  0  0  0  0  0  0  0  0  0
    4.6427    0.7854    0.0000 C   0  0  0  0  0  0  0  0  0  0  0  0
    6.1324    0.9603    0.0000 C   0  0  0  0  0  0  0  0  0  0  0  0
    5.5390   -0.4174    0.0000 C   0  0  0  0  0  0  0  0  0  0  0  0
  1  2  2  0
  2  3  1  0
  3  4  1  0
  4  5  2  0
  5  6  1  0
  6  7  1  0
  6  8  1  0
  8  9  1  1
  9 10  2  0
 10 11  1  0
 11 12  2  0
 12 13  1  0
 13 14  2  0
  8 15  1  0
 15 16  1  0
 16 17  1  1
  2 18  1  0
 18 19  1  0
 19 20  1  0
  7  3  2  0
 14  9  1  0
 20 18  1  0
 16  5  1  0
M  END
>  <BrandName>  (212) 


>  <Applicants>  (212) 
('',)

>  <CHEMBL_ID>  (212) 
CHEMBL5314462

>  <Canonical_Smiles>  (212) 
O=C(c1nc2n(n1)[C@H](c1ccccc1)C[C@@H]2F)C1CC1

>  <Chirality>  (212) 
Unknown

>  <First_Approval>  (212) 
nan

>  <Phase>  (212) 
2.0

>  <SC_Patent>  (212) 
nan

>  <Synonyms>  (212) 
FLIZASERTIB

>  <Withdrawn>  (212) 
nan

>  <Indications>  (212) 
nan

>  <Type>  (212) 
nan

>  <targets_id>  (212) 
nan

>  <Inchi>  (212) 
InChI=1S/C15H14FN3O/c16-11-8-12(9-4-2-1-3-5-9)19-15(11)17-14(18-19)13(20)10-6-7-10/h1-5,10-12H,6-8H2/t11-,12-/m0/s1

>  <stdInchikey>  (212) 
LMXPZWQVDDSYHH-RYUDHWBXSA-N

>  <csid>  (212) 
128921753

>  <Links>  (212) 
|http://www.chemspider.com/Chemical-Structure.128921753.html|https://www.ebi.ac.uk/chembldb/compound/inspect/CHEMBL5314462|https://pubchem.ncbi.nlm.nih.gov/compound/137408242

>  <LinkName>  (212) 
|ChemSpider|ChEMBL|PubChem

>  <lig_pdb_ID>  (212) 


>  <pdb_IDs>  (212) 


>  <indicationDB>  (212) 


>  <uniprotId>  (212) 


>  <indicationG2P>  (212) 


>  <MW>  (212) 
271.1

>  <HBA>  (212) 
4

>  <HBD>  (212) 
0

>  <NRB>  (212) 
3

>  <TPSA>  (212) 
47.8

>  <LogP>  (212) 
2.9

>  <RoF>  (212) 
0

>  <Melting point>  (212) 
nan

>  <Targets>  (212) 
nan

>  <Kinase families>  (212) 


>  <FDA_approved>  (212) 


$$$$
Tanuxiciclib
     RDKit          2D

 23 25  0  0  0  0  0  0  0  0999 V2000
    6.3313   -1.0157    0.0000 C   0  0  0  0  0  0  0  0  0  0  0  0
    5.0815   -0.1863    0.0000 C   0  0  0  0  0  0  0  0  0  0  0  0
    3.7382   -0.8539    0.0000 C   0  0  0  0  0  0  0  0  0  0  0  0
    2.4884   -0.0245    0.0000 C   0  0  0  0  0  0  0  0  0  0  0  0
    1.1452   -0.6922    0.0000 C   0  0  0  0  0  0  0  0  0  0  0  0
   -0.1046    0.1372    0.0000 N   0  0  0  0  0  0  0  0  0  0  0  0
   -1.4478   -0.5305    0.0000 C   0  0  0  0  0  0  0  0  0  0  0  0
   -2.6977    0.2990    0.0000 C   0  0  0  0  0  0  0  0  0  0  0  0
   -2.6043    1.7960    0.0000 C   0  0  0  0  0  0  0  0  0  0  0  0
   -3.8541    2.6255    0.0000 C   0  0  0  0  0  0  0  0  0  0  0  0
   -5.1973    1.9578    0.0000 N   0  0  0  0  0  0  0  0  0  0  0  0
   -5.2907    0.4607    0.0000 C   0  0  0  0  0  0  0  0  0  0  0  0
   -6.6339   -0.2070    0.0000 N   0  0  0  0  0  0  0  0  0  0  0  0
   -4.0409   -0.3687    0.0000 C   0  0  0  0  0  0  0  0  0  0  0  0
   -4.1343   -1.8658    0.0000 F   0  0  0  0  0  0  0  0  0  0  0  0
   -1.5412   -2.0275    0.0000 C   0  0  0  0  0  0  0  0  0  0  0  0
   -0.2914   -2.8570    0.0000 C   0  0  0  0  0  0  0  0  0  0  0  0
    1.0518   -2.1893    0.0000 C   0  0  0  0  0  0  0  0  0  0  0  0
    2.3016   -3.0187    0.0000 O   0  0  0  0  0  0  0  0  0  0  0  0
    2.5818    1.4726    0.0000 N   0  0  0  0  0  0  0  0  0  0  0  0
    3.9250    2.1402    0.0000 C   0  0  0  0  0  0  0  0  0  0  0  0
    4.0184    3.6373    0.0000 N   0  0  0  0  0  0  0  0  0  0  0  0
    5.1748    1.3108    0.0000 N   0  0  0  0  0  0  0  0  0  0  0  0
  1  2  1  0
  2  3  2  0
  3  4  1  0
  4  5  1  0
  5  6  2  0
  6  7  1  0
  7  8  1  0
  8  9  2  0
  9 10  1  0
 10 11  2  0
 11 12  1  0
 12 13  1  0
 12 14  2  0
 14 15  1  0
  7 16  2  0
 16 17  1  0
 17 18  2  0
 18 19  1  0
  4 20  2  0
 20 21  1  0
 21 22  1  0
 21 23  2  0
 23  2  1  0
 18  5  1  0
 14  8  1  0
M  END
>  <BrandName>  (213) 


>  <Applicants>  (213) 
BeyondBio

>  <CHEMBL_ID>  (213) 
CHEMBL5095084

>  <Canonical_Smiles>  (213) 
Cc1cc(-c2nc(-c3ccnc(N)c3F)ccc2O)nc(N)n1

>  <Chirality>  (213) 
Achiral Molecule

>  <First_Approval>  (213) 
nan

>  <Phase>  (213) 
2.0

>  <SC_Patent>  (213) 
nan

>  <Synonyms>  (213) 
TANUXICICLIB

>  <Withdrawn>  (213) 
nan

>  <Indications>  (213) 
nan

>  <Type>  (213) 
nan

>  <targets_id>  (213) 
nan

>  <Inchi>  (213) 
InChI=1S/C15H13FN6O/c1-7-6-10(22-15(18)20-7)13-11(23)3-2-9(21-13)8-4-5-19-14(17)12(8)16/h2-6,23H,1H3,(H2,17,19)(H2,18,20,22)

>  <stdInchikey>  (213) 
UQHDKUFLWKTTDL-UHFFFAOYSA-N

>  <csid>  (213) 
115008004

>  <Links>  (213) 
|http://www.chemspider.com/Chemical-Structure.115008004.html|https://www.ebi.ac.uk/chembldb/compound/inspect/CHEMBL5095084|https://pubchem.ncbi.nlm.nih.gov/compound/137150090|https://precision.fda.gov/uniisearch/srs/unii/P5HNG5UF2U

>  <LinkName>  (213) 
|ChemSpider|ChEMBL|PubChem|FDA SRS

>  <lig_pdb_ID>  (213) 


>  <pdb_IDs>  (213) 


>  <indicationDB>  (213) 


>  <uniprotId>  (213) 


>  <indicationG2P>  (213) 


>  <MW>  (213) 
312.1

>  <HBA>  (213) 
7

>  <HBD>  (213) 
3

>  <NRB>  (213) 
2

>  <TPSA>  (213) 
123.8

>  <LogP>  (213) 
1.9

>  <RoF>  (213) 
0

>  <Melting point>  (213) 
nan

>  <Targets>  (213) 
nan

>  <Kinase families>  (213) 


>  <FDA_approved>  (213) 


$$$$
Atinvicitinib
     RDKit          2D

 26 28  0  0  0  0  0  0  0  0999 V2000
   -6.9072   -0.4767    0.0000 C   0  0  0  0  0  0  0  0  0  0  0  0
   -6.2133    0.8532    0.0000 O   0  0  0  0  0  0  0  0  0  0  0  0
   -4.7147    0.9172    0.0000 C   0  0  0  0  0  0  0  0  0  0  0  0
   -3.9099   -0.3486    0.0000 C   0  0  0  0  0  0  0  0  0  0  0  0
   -2.4113   -0.2846    0.0000 C   0  0  0  0  0  0  0  0  0  0  0  0
   -1.6065   -1.5505    0.0000 N   0  0  0  0  0  0  0  0  0  0  0  0
   -0.1079   -1.4864    0.0000 C   0  0  0  0  0  0  0  0  0  0  0  0
    0.7212   -0.2364    0.0000 N   0  0  0  0  0  0  0  0  0  0  0  0
    2.1663   -0.6386    0.0000 N   0  0  0  0  0  0  0  0  0  0  0  0
    3.3411    0.2941    0.0000 C   0  0  0  0  0  0  0  0  0  0  0  0
    4.7362   -0.2570    0.0000 C   0  0  0  0  0  0  0  0  0  0  0  0
    5.9110    0.6757    0.0000 O   0  0  0  0  0  0  0  0  0  0  0  0
    5.6906    2.1594    0.0000 C   0  0  0  0  0  0  0  0  0  0  0  0
    4.2955    2.7105    0.0000 C   0  0  0  0  0  0  0  0  0  0  0  0
    3.1207    1.7778    0.0000 C   0  0  0  0  0  0  0  0  0  0  0  0
    1.7256    2.3289    0.0000 C   0  0  0  0  0  0  0  0  0  0  0  0
    0.3305    2.8799    0.0000 N   0  0  0  0  0  0  0  0  0  0  0  0
    2.2303   -2.1372    0.0000 C   0  0  0  0  0  0  0  0  0  0  0  0
    0.8248   -2.6612    0.0000 C   0  0  0  0  0  0  0  0  0  0  0  0
    0.4226   -4.1063    0.0000 C   0  0  0  0  0  0  0  0  0  0  0  0
    1.4729   -5.1771    0.0000 N   0  0  0  0  0  0  0  0  0  0  0  0
   -1.0300   -4.4805    0.0000 O   0  0  0  0  0  0  0  0  0  0  0  0
   -1.7174    1.0453    0.0000 C   0  0  0  0  0  0  0  0  0  0  0  0
   -2.5222    2.3111    0.0000 C   0  0  0  0  0  0  0  0  0  0  0  0
   -1.8283    3.6410    0.0000 F   0  0  0  0  0  0  0  0  0  0  0  0
   -4.0208    2.2471    0.0000 N   0  0  0  0  0  0  0  0  0  0  0  0
  1  2  1  0
  2  3  1  0
  3  4  2  0
  4  5  1  0
  5  6  1  0
  6  7  1  0
  7  8  2  0
  8  9  1  0
 10  9  1  6
 10 11  1  0
 11 12  1  0
 12 13  1  0
 13 14  1  0
 14 15  1  0
 15 16  1  1
 16 17  3  0
  9 18  1  0
 18 19  2  0
 19 20  1  0
 20 21  1  0
 20 22  2  0
  5 23  2  0
 23 24  1  0
 24 25  1  0
 24 26  2  0
 26  3  1  0
 19  7  1  0
 15 10  1  0
M  END
>  <BrandName>  (214) 


>  <Applicants>  (214) 
Intervet International BV

>  <CHEMBL_ID>  (214) 
CHEMBL4066193

>  <Canonical_Smiles>  (214) 
COc1cc(Nc2nn([C@H]3COCC[C@@H]3C#N)cc2C(N)=O)cc(F)n1

>  <Chirality>  (214) 
Single Stereoisomer

>  <First_Approval>  (214) 
nan

>  <Phase>  (214) 
2.0

>  <SC_Patent>  (214) 
nan

>  <Synonyms>  (214) 
ATINVICITINIB

>  <Withdrawn>  (214) 
nan

>  <Indications>  (214) 
nan

>  <Type>  (214) 
nan

>  <targets_id>  (214) 
nan

>  <Inchi>  (214) 
InChI=1S/C16H17FN6O3/c1-25-14-5-10(4-13(17)21-14)20-16-11(15(19)24)7-23(22-16)12-8-26-3-2-9(12)6-18/h4-5,7,9,12H,2-3,8H2,1H3,(H2,19,24)(H,20,21,22)/t9-,12+/m1/s1

>  <stdInchikey>  (214) 
PRQMBGDYXWVEHE-SKDRFNHKSA-N

>  <csid>  (214) 
76784061

>  <Links>  (214) 
|http://www.chemspider.com/Chemical-Structure.76784061.html|https://www.ebi.ac.uk/chembldb/compound/inspect/CHEMBL4066193|https://pubchem.ncbi.nlm.nih.gov/compound/135138184|https://www.bindingdb.org/bind/chemsearch/marvin/MolStructure.jsp?monomerid=50250929

>  <LinkName>  (214) 
|ChemSpider|ChEMBL|PubChem|BindingDB

>  <lig_pdb_ID>  (214) 


>  <pdb_IDs>  (214) 


>  <indicationDB>  (214) 


>  <uniprotId>  (214) 


>  <indicationG2P>  (214) 


>  <MW>  (214) 
360.1

>  <HBA>  (214) 
8

>  <HBD>  (214) 
2

>  <NRB>  (214) 
5

>  <TPSA>  (214) 
128.1

>  <LogP>  (214) 
1.4

>  <RoF>  (214) 
0

>  <Melting point>  (214) 
nan

>  <Targets>  (214) 
nan

>  <Kinase families>  (214) 


>  <FDA_approved>  (214) 


$$$$
Rebastinib
     RDKit          2D

 41 45  0  0  0  0  0  0  0  0999 V2000
    4.7071    5.4105    0.0000 C   0  0  0  0  0  0  0  0  0  0  0  0
    3.2360    5.1173    0.0000 C   0  0  0  0  0  0  0  0  0  0  0  0
    1.7650    4.8241    0.0000 C   0  0  0  0  0  0  0  0  0  0  0  0
    2.9428    6.5883    0.0000 C   0  0  0  0  0  0  0  0  0  0  0  0
    3.5292    3.6462    0.0000 C   0  0  0  0  0  0  0  0  0  0  0  0
    2.5114    2.5443    0.0000 C   0  0  0  0  0  0  0  0  0  0  0  0
    3.2449    1.2359    0.0000 C   0  0  0  0  0  0  0  0  0  0  0  0
    4.7159    1.5291    0.0000 N   0  0  0  0  0  0  0  0  0  0  0  0
    4.8917    3.0187    0.0000 N   0  0  0  0  0  0  0  0  0  0  0  0
    5.8178    0.5113    0.0000 C   0  0  0  0  0  0  0  0  0  0  0  0
    7.2502    0.9567    0.0000 C   0  0  0  0  0  0  0  0  0  0  0  0
    8.3520   -0.0611    0.0000 C   0  0  0  0  0  0  0  0  0  0  0  0
    8.0216   -1.5243    0.0000 C   0  0  0  0  0  0  0  0  0  0  0  0
    6.5892   -1.9696    0.0000 C   0  0  0  0  0  0  0  0  0  0  0  0
    5.4873   -0.9518    0.0000 C   0  0  0  0  0  0  0  0  0  0  0  0
    6.2587   -3.4328    0.0000 C   0  0  0  0  0  0  0  0  0  0  0  0
    7.3606   -4.4505    0.0000 C   0  0  0  0  0  0  0  0  0  0  0  0
    8.7929   -4.0052    0.0000 C   0  0  0  0  0  0  0  0  0  0  0  0
    9.1234   -2.5420    0.0000 N   0  0  0  0  0  0  0  0  0  0  0  0
    2.6174   -0.1266    0.0000 N   0  0  0  0  0  0  0  0  0  0  0  0
    1.1238   -0.2644    0.0000 C   0  0  0  0  0  0  0  0  0  0  0  0
    0.2576    0.9602    0.0000 O   0  0  0  0  0  0  0  0  0  0  0  0
    0.4963   -1.6269    0.0000 N   0  0  0  0  0  0  0  0  0  0  0  0
   -0.9974   -1.7647    0.0000 C   0  0  0  0  0  0  0  0  0  0  0  0
   -1.8636   -0.5400    0.0000 C   0  0  0  0  0  0  0  0  0  0  0  0
   -3.3572   -0.6779    0.0000 C   0  0  0  0  0  0  0  0  0  0  0  0
   -3.9847   -2.0403    0.0000 C   0  0  0  0  0  0  0  0  0  0  0  0
   -3.1185   -3.2650    0.0000 C   0  0  0  0  0  0  0  0  0  0  0  0
   -1.6248   -3.1271    0.0000 C   0  0  0  0  0  0  0  0  0  0  0  0
   -0.7587   -4.3518    0.0000 F   0  0  0  0  0  0  0  0  0  0  0  0
   -5.4783   -2.1781    0.0000 O   0  0  0  0  0  0  0  0  0  0  0  0
   -6.3445   -0.9535    0.0000 C   0  0  0  0  0  0  0  0  0  0  0  0
   -5.7171    0.4089    0.0000 C   0  0  0  0  0  0  0  0  0  0  0  0
   -6.5832    1.6336    0.0000 C   0  0  0  0  0  0  0  0  0  0  0  0
   -8.0769    1.4957    0.0000 N   0  0  0  0  0  0  0  0  0  0  0  0
   -8.7044    0.1333    0.0000 C   0  0  0  0  0  0  0  0  0  0  0  0
   -7.8382   -1.0913    0.0000 C   0  0  0  0  0  0  0  0  0  0  0  0
  -10.1980   -0.0045    0.0000 C   0  0  0  0  0  0  0  0  0  0  0  0
  -10.8255   -1.3670    0.0000 O   0  0  0  0  0  0  0  0  0  0  0  0
  -11.0642    1.2201    0.0000 N   0  0  0  0  0  0  0  0  0  0  0  0
  -12.5579    1.0823    0.0000 C   0  0  0  0  0  0  0  0  0  0  0  0
  1  2  1  0
  2  3  1  0
  2  4  1  0
  2  5  1  0
  5  6  1  0
  6  7  2  0
  7  8  1  0
  8  9  1  0
  8 10  1  0
 10 11  2  0
 11 12  1  0
 12 13  2  0
 13 14  1  0
 14 15  2  0
 14 16  1  0
 16 17  2  0
 17 18  1  0
 18 19  2  0
  7 20  1  0
 20 21  1  0
 21 22  2  0
 21 23  1  0
 23 24  1  0
 24 25  2  0
 25 26  1  0
 26 27  2  0
 27 28  1  0
 28 29  2  0
 29 30  1  0
 27 31  1  0
 31 32  1  0
 32 33  2  0
 33 34  1  0
 34 35  2  0
 35 36  1  0
 36 37  2  0
 36 38  1  0
 38 39  2  0
 38 40  1  0
 40 41  1  0
  9  5  2  0
 15 10  1  0
 19 13  1  0
 29 24  1  0
 37 32  1  0
M  END
>  <BrandName>  (215) 
DP-1919;Dp-1919

>  <Applicants>  (215) 
Deciphera Pharmaceuticals

>  <CHEMBL_ID>  (215) 
CHEMBL1738757

>  <Canonical_Smiles>  (215) 
CC(C)(C)c1cc(n(n1)c2ccc3c(c2)cccn3)NC(=O)Nc4ccc(cc4F)Oc5ccnc(c5)C(=O)NC

>  <Chirality>  (215) 
Achiral Molecule

>  <First_Approval>  (215) 
nan

>  <Phase>  (215) 
2.0

>  <SC_Patent>  (215) 
nan

>  <Synonyms>  (215) 
DCC-2036 | DCC-2036 FREE BASE | DP-1919 | REBASTINIB

>  <Withdrawn>  (215) 
{''}

>  <Indications>  (215) 
nan

>  <Type>  (215) 
2

>  <targets_id>  (215) 
P36888|Q02763|P35968|P07948|P11274|P00519|P04629

>  <Inchi>  (215) 
InChI=1S/C30H28FN7O3/c1-30(2,3)26-17-27(38(37-26)19-7-9-23-18(14-19)6-5-12-33-23)36-29(40)35-24-10-8-20(15-22(24)31)41-21-11-13-34-25(16-21)28(39)32-4/h5-17H,1-4H3,(H,32,39)(H2,35,36,40)

>  <stdInchikey>  (215) 
WVXNSAVVKYZVOE-UHFFFAOYSA-N

>  <csid>  (215) 
26325986

>  <Links>  (215) 
|http://www.chemspider.com/Chemical-Structure.26325986.html|https://www.ebi.ac.uk/chembldb/compound/inspect/CHEMBL1738757|https://pubchem.ncbi.nlm.nih.gov/compound/25066467|https://go.drugbank.com/drugs/DB13005|https://www.rcsb.org/ligand/919|https://www.ebi.ac.uk/pdbe-srv/pdbechem/chemicalCompound/show/919|https://www.guidetopharmacology.org/GRAC/LigandDisplayForward?9173|https://zinc15.docking.org/substances/ZINC000063933734|https://precision.fda.gov/uniisearch/srs/unii/75017Q6I97|https://www.bindingdb.org/bind/chemsearch/marvin/MolStructure.jsp?monomerid=185674

>  <LinkName>  (215) 
|ChemSpider|ChEMBL|PubChem|DrugBank|RCSB|PDBe|Guide to Pharmacology|ZINC|FDA SRS|BindingDB

>  <lig_pdb_ID>  (215) 
919

>  <pdb_IDs>  (215) 
3qri 3qrj 5g6v 6cnh 6mwe 8u8b

>  <indicationDB>  (215) 


>  <uniprotId>  (215) 


>  <indicationG2P>  (215) 
None

>  <MW>  (215) 
553.2

>  <HBA>  (215) 
7

>  <HBD>  (215) 
3

>  <NRB>  (215) 
6

>  <TPSA>  (215) 
123.1

>  <LogP>  (215) 
6.0

>  <RoF>  (215) 
2

>  <Melting point>  (215) 
nan

>  <Targets>  (215) 
FLT3; TEK; KDR; LYN; BCR; ABL1; NTRK1

>  <Kinase families>  (215) 
Tyr<br>Atypical

>  <FDA_approved>  (215) 


$$$$
Olafertinib
     RDKit          2D

 39 43  0  0  0  0  0  0  0  0999 V2000
  -11.7675    3.0985    0.0000 C   0  0  0  0  0  0  0  0  0  0  0  0
  -11.0103    1.8036    0.0000 C   0  0  0  0  0  0  0  0  0  0  0  0
   -9.5103    1.8120    0.0000 C   0  0  0  0  0  0  0  0  0  0  0  0
   -8.7676    3.1153    0.0000 O   0  0  0  0  0  0  0  0  0  0  0  0
   -8.7530    0.5172    0.0000 N   0  0  0  0  0  0  0  0  0  0  0  0
   -7.2531    0.5256    0.0000 C   0  0  0  0  0  0  0  0  0  0  0  0
   -6.5103    1.8288    0.0000 C   0  0  0  0  0  0  0  0  0  0  0  0
   -5.0104    1.8373    0.0000 C   0  0  0  0  0  0  0  0  0  0  0  0
   -4.2531    0.5424    0.0000 C   0  0  0  0  0  0  0  0  0  0  0  0
   -4.9958   -0.7608    0.0000 C   0  0  0  0  0  0  0  0  0  0  0  0
   -4.2386   -2.0556    0.0000 C   0  0  0  0  0  0  0  0  0  0  0  0
   -4.9813   -3.3588    0.0000 C   0  0  0  0  0  0  0  0  0  0  0  0
   -4.2240   -4.6536    0.0000 C   0  0  0  0  0  0  0  0  0  0  0  0
   -2.7240   -4.6452    0.0000 C   0  0  0  0  0  0  0  0  0  0  0  0
   -1.9813   -3.3420    0.0000 C   0  0  0  0  0  0  0  0  0  0  0  0
   -0.4813   -3.3336    0.0000 C   0  0  0  0  0  0  0  0  0  0  0  0
    0.2614   -2.0304    0.0000 N   0  0  0  0  0  0  0  0  0  0  0  0
   -0.4959   -0.7356    0.0000 C   0  0  0  0  0  0  0  0  0  0  0  0
    0.2468    0.5676    0.0000 N   0  0  0  0  0  0  0  0  0  0  0  0
    1.7468    0.5760    0.0000 C   0  0  0  0  0  0  0  0  0  0  0  0
    2.5041   -0.7188    0.0000 C   0  0  0  0  0  0  0  0  0  0  0  0
    4.0040   -0.7104    0.0000 C   0  0  0  0  0  0  0  0  0  0  0  0
    4.7468    0.5928    0.0000 C   0  0  0  0  0  0  0  0  0  0  0  0
    6.2467    0.6012    0.0000 N   0  0  0  0  0  0  0  0  0  0  0  0
    7.0040   -0.6936    0.0000 C   0  0  0  0  0  0  0  0  0  0  0  0
    8.5040   -0.6852    0.0000 C   0  0  0  0  0  0  0  0  0  0  0  0
    9.2467    0.6180    0.0000 N   0  0  0  0  0  0  0  0  0  0  0  0
   10.7467    0.6265    0.0000 C   0  0  0  0  0  0  0  0  0  0  0  0
   11.5039   -0.6684    0.0000 C   0  0  0  0  0  0  0  0  0  0  0  0
   13.0039   -0.6600    0.0000 O   0  0  0  0  0  0  0  0  0  0  0  0
    8.4894    1.9129    0.0000 C   0  0  0  0  0  0  0  0  0  0  0  0
    6.9894    1.9045    0.0000 C   0  0  0  0  0  0  0  0  0  0  0  0
    3.9895    1.8877    0.0000 C   0  0  0  0  0  0  0  0  0  0  0  0
    4.7322    3.1909    0.0000 F   0  0  0  0  0  0  0  0  0  0  0  0
    2.4895    1.8793    0.0000 C   0  0  0  0  0  0  0  0  0  0  0  0
    1.7322    3.1741    0.0000 F   0  0  0  0  0  0  0  0  0  0  0  0
   -1.9959   -0.7440    0.0000 N   0  0  0  0  0  0  0  0  0  0  0  0
   -2.7386   -2.0472    0.0000 C   0  0  0  0  0  0  0  0  0  0  0  0
   -6.4958   -0.7692    0.0000 C   0  0  0  0  0  0  0  0  0  0  0  0
  1  2  2  0
  2  3  1  0
  3  4  2  0
  3  5  1  0
  5  6  1  0
  6  7  2  0
  7  8  1  0
  8  9  2  0
  9 10  1  0
 10 11  1  0
 11 12  2  0
 12 13  1  0
 13 14  2  0
 14 15  1  0
 15 16  2  0
 16 17  1  0
 17 18  2  0
 18 19  1  0
 19 20  1  0
 20 21  2  0
 21 22  1  0
 22 23  2  0
 23 24  1  0
 24 25  1  0
 25 26  1  0
 26 27  1  0
 27 28  1  0
 28 29  1  0
 29 30  1  0
 27 31  1  0
 31 32  1  0
 23 33  1  0
 33 34  1  0
 33 35  2  0
 35 36  1  0
 18 37  1  0
 37 38  2  0
 10 39  2  0
 39  6  1  0
 38 11  1  0
 38 15  1  0
 35 20  1  0
 32 24  1  0
M  END
>  <BrandName>  (216) 


>  <Applicants>  (216) 
Suzhou NeuPharma

>  <CHEMBL_ID>  (216) 
CHEMBL4297486

>  <Canonical_Smiles>  (216) 
C=CC(=O)Nc1cccc(-c2cccc3cnc(Nc4ccc(N5CCN(CCO)CC5)c(F)c4F)nc23)c1

>  <Chirality>  (216) 
Achiral Molecule

>  <First_Approval>  (216) 
nan

>  <Phase>  (216) 
2.0

>  <SC_Patent>  (216) 
nan

>  <Synonyms>  (216) 
CK-101 | OLAFERTINIB | RX-518

>  <Withdrawn>  (216) 
nan

>  <Indications>  (216) 
nan

>  <Type>  (216) 
nan

>  <targets_id>  (216) 
nan

>  <Inchi>  (216) 
InChI=1S/C29H28F2N6O2/c1-2-25(39)33-21-7-3-5-19(17-21)22-8-4-6-20-18-32-29(35-28(20)22)34-23-9-10-24(27(31)26(23)30)37-13-11-36(12-14-37)15-16-38/h2-10,17-18,38H,1,11-16H2,(H,33,39)(H,32,34,35)

>  <stdInchikey>  (216) 
IDRGFNPZDVBSSE-UHFFFAOYSA-N

>  <csid>  (216) 
57490372

>  <Links>  (216) 
|http://www.chemspider.com/Chemical-Structure.57490372.html|https://www.ebi.ac.uk/chembldb/compound/inspect/CHEMBL4297486|https://pubchem.ncbi.nlm.nih.gov/compound/117909640|https://www.guidetopharmacology.org/GRAC/LigandDisplayForward?9863|https://zinc15.docking.org/substances/ZINC000514250913|https://precision.fda.gov/uniisearch/srs/unii/708TLB8J3Y|https://www.bindingdb.org/bind/chemsearch/marvin/MolStructure.jsp?monomerid=318916

>  <LinkName>  (216) 
|ChemSpider|ChEMBL|PubChem|Guide to Pharmacology|ZINC|FDA SRS|BindingDB

>  <lig_pdb_ID>  (216) 


>  <pdb_IDs>  (216) 


>  <indicationDB>  (216) 


>  <uniprotId>  (216) 


>  <indicationG2P>  (216) 
None

>  <MW>  (216) 
530.2

>  <HBA>  (216) 
7

>  <HBD>  (216) 
3

>  <NRB>  (216) 
8

>  <TPSA>  (216) 
93.6

>  <LogP>  (216) 
4.6

>  <RoF>  (216) 
1

>  <Melting point>  (216) 
nan

>  <Targets>  (216) 
nan

>  <Kinase families>  (216) 


>  <FDA_approved>  (216) 


$$$$
Nimucitinib
     RDKit          2D

 35 38  0  0  0  0  0  0  0  0999 V2000
   -6.3153    4.4392    0.0000 N   0  0  0  0  0  0  0  0  0  0  0  0
   -5.5546    3.1464    0.0000 C   0  0  0  0  0  0  0  0  0  0  0  0
   -6.2939    1.8412    0.0000 O   0  0  0  0  0  0  0  0  0  0  0  0
   -4.0547    3.1587    0.0000 C   0  0  0  0  0  0  0  0  0  0  0  0
   -3.3154    4.4639    0.0000 C   0  0  0  0  0  0  0  0  0  0  0  0
   -1.8154    4.4762    0.0000 N   0  0  0  0  0  0  0  0  0  0  0  0
   -1.0548    3.1834    0.0000 C   0  0  0  0  0  0  0  0  0  0  0  0
    0.4452    3.1957    0.0000 N   0  0  0  0  0  0  0  0  0  0  0  0
    1.2058    1.9029    0.0000 C   0  0  0  0  0  0  0  0  0  0  0  0
    0.4665    0.5977    0.0000 C   0  0  0  0  0  0  0  0  0  0  0  0
    1.2272   -0.6951    0.0000 C   0  0  0  0  0  0  0  0  0  0  0  0
    2.7271   -0.6828    0.0000 C   0  0  0  0  0  0  0  0  0  0  0  0
    3.4664    0.6224    0.0000 C   0  0  0  0  0  0  0  0  0  0  0  0
    4.9664    0.6347    0.0000 N   0  0  0  0  0  0  0  0  0  0  0  0
    5.7270   -0.6581    0.0000 C   0  0  0  0  0  0  0  0  0  0  0  0
    4.9877   -1.9633    0.0000 O   0  0  0  0  0  0  0  0  0  0  0  0
    7.2270   -0.6458    0.0000 C   0  0  0  0  0  0  0  0  0  0  0  0
    7.9876   -1.9386    0.0000 C   0  0  0  0  0  0  0  0  0  0  0  0
    9.4876   -1.9263    0.0000 C   0  0  0  0  0  0  0  0  0  0  0  0
   10.2269   -0.6211    0.0000 C   0  0  0  0  0  0  0  0  0  0  0  0
    9.4662    0.6717    0.0000 N   0  0  0  0  0  0  0  0  0  0  0  0
    7.9663    0.6594    0.0000 C   0  0  0  0  0  0  0  0  0  0  0  0
    2.7058    1.9152    0.0000 C   0  0  0  0  0  0  0  0  0  0  0  0
   -1.7941    1.8782    0.0000 C   0  0  0  0  0  0  0  0  0  0  0  0
   -3.2940    1.8659    0.0000 C   0  0  0  0  0  0  0  0  0  0  0  0
   -4.0333    0.5607    0.0000 N   0  0  0  0  0  0  0  0  0  0  0  0
   -3.2727   -0.7321    0.0000 C   0  0  0  0  0  0  0  0  0  0  0  0
   -4.0120   -2.0373    0.0000 C   0  0  0  0  0  0  0  0  0  0  0  0
   -5.5119   -2.0496    0.0000 C   0  0  0  0  0  0  0  0  0  0  0  0
   -6.2512   -3.3548    0.0000 C   0  0  0  0  0  0  0  0  0  0  0  0
   -7.7512   -3.3671    0.0000 F   0  0  0  0  0  0  0  0  0  0  0  0
   -5.4906   -4.6476    0.0000 C   0  0  0  0  0  0  0  0  0  0  0  0
   -3.9906   -4.6353    0.0000 C   0  0  0  0  0  0  0  0  0  0  0  0
   -3.2299   -5.9281    0.0000 F   0  0  0  0  0  0  0  0  0  0  0  0
   -3.2513   -3.3301    0.0000 C   0  0  0  0  0  0  0  0  0  0  0  0
  1  2  1  0
  2  3  2  0
  2  4  1  0
  4  5  2  0
  5  6  1  0
  6  7  2  0
  7  8  1  0
  8  9  1  0
  9 10  2  0
 10 11  1  0
 11 12  2  0
 12 13  1  0
 13 14  1  0
 14 15  1  0
 15 16  2  0
 17 15  1  6
 17 18  1  0
 18 19  1  0
 19 20  1  0
 20 21  1  0
 21 22  1  0
 13 23  2  0
  7 24  1  0
 24 25  2  0
 25 26  1  0
 26 27  1  0
 27 28  1  0
 28 29  2  0
 29 30  1  0
 30 31  1  0
 30 32  2  0
 32 33  1  0
 33 34  1  0
 33 35  2  0
 25  4  1  0
 35 28  1  0
 23  9  1  0
 22 17  1  0
M  END
>  <BrandName>  (217) 


>  <Applicants>  (217) 
('',)

>  <CHEMBL_ID>  (217) 
CHEMBL5314473

>  <Canonical_Smiles>  (217) 
NC(=O)c1cnc(Nc2cccc(NC(=O)[C@H]3CCCNC3)c2)cc1NCc1cc(F)cc(F)c1

>  <Chirality>  (217) 
Unknown

>  <First_Approval>  (217) 
nan

>  <Phase>  (217) 
2.0

>  <SC_Patent>  (217) 
nan

>  <Synonyms>  (217) 
NIMUCITINIB

>  <Withdrawn>  (217) 
nan

>  <Indications>  (217) 
nan

>  <Type>  (217) 
nan

>  <targets_id>  (217) 
nan

>  <Inchi>  (217) 
InChI=1S/C25H26F2N6O2/c26-17-7-15(8-18(27)9-17)12-30-22-11-23(31-14-21(22)24(28)34)32-19-4-1-5-20(10-19)33-25(35)16-3-2-6-29-13-16/h1,4-5,7-11,14,16,29H,2-3,6,12-13H2,(H2,28,34)(H,33,35)(H2,30,31,32)/t16-/m0/s1

>  <stdInchikey>  (217) 
FDQSOYXLRVBMGA-INIZCTEOSA-N

>  <csid>  (217) 
129306743

>  <Links>  (217) 
|http://www.chemspider.com/Chemical-Structure.129306743.html|https://www.ebi.ac.uk/chembldb/compound/inspect/CHEMBL5314473|https://pubchem.ncbi.nlm.nih.gov/compound/166642640

>  <LinkName>  (217) 
|ChemSpider|ChEMBL|PubChem

>  <lig_pdb_ID>  (217) 


>  <pdb_IDs>  (217) 


>  <indicationDB>  (217) 


>  <uniprotId>  (217) 


>  <indicationG2P>  (217) 


>  <MW>  (217) 
480.2

>  <HBA>  (217) 
6

>  <HBD>  (217) 
5

>  <NRB>  (217) 
8

>  <TPSA>  (217) 
121.2

>  <LogP>  (217) 
3.8

>  <RoF>  (217) 
0

>  <Melting point>  (217) 
nan

>  <Targets>  (217) 
nan

>  <Kinase families>  (217) 


>  <FDA_approved>  (217) 


$$$$
Zelasudil
     RDKit          2D

 32 36  0  0  0  0  0  0  0  0999 V2000
   -2.4184   -2.3363    0.0000 C   0  0  0  0  0  0  0  0  0  0  0  0
   -1.3879   -1.2463    0.0000 N   0  0  0  0  0  0  0  0  0  0  0  0
    0.0996   -1.4394    0.0000 N   0  0  0  0  0  0  0  0  0  0  0  0
    0.7429   -0.0843    0.0000 C   0  0  0  0  0  0  0  0  0  0  0  0
    2.2172    0.1918    0.0000 C   0  0  0  0  0  0  0  0  0  0  0  0
    3.1935   -0.9470    0.0000 C   0  0  0  0  0  0  0  0  0  0  0  0
    4.6679   -0.6709    0.0000 C   0  0  0  0  0  0  0  0  0  0  0  0
    5.1660    0.7440    0.0000 C   0  0  0  0  0  0  0  0  0  0  0  0
    6.6404    1.0201    0.0000 C   0  0  0  0  0  0  0  0  0  0  0  0
    7.1384    2.4350    0.0000 O   0  0  0  0  0  0  0  0  0  0  0  0
    7.6166   -0.1187    0.0000 N   0  0  0  0  0  0  0  0  0  0  0  0
    9.0910    0.1574    0.0000 C   0  0  0  0  0  0  0  0  0  0  0  0
   10.0673   -0.9814    0.0000 C   0  0  0  0  0  0  0  0  0  0  0  0
   11.5417   -0.7054    0.0000 F   0  0  0  0  0  0  0  0  0  0  0  0
    9.5692   -2.3963    0.0000 F   0  0  0  0  0  0  0  0  0  0  0  0
    4.1897    1.8828    0.0000 C   0  0  0  0  0  0  0  0  0  0  0  0
    2.7153    1.6067    0.0000 C   0  0  0  0  0  0  0  0  0  0  0  0
   -0.3471    0.9462    0.0000 N   0  0  0  0  0  0  0  0  0  0  0  0
   -1.6640    0.2280    0.0000 C   0  0  0  0  0  0  0  0  0  0  0  0
   -3.0191    0.8713    0.0000 N   0  0  0  0  0  0  0  0  0  0  0  0
   -4.2537    0.0194    0.0000 C   0  0  0  0  0  0  0  0  0  0  0  0
   -4.1332   -1.4758    0.0000 C   0  0  0  0  0  0  0  0  0  0  0  0
   -5.3678   -2.3277    0.0000 C   0  0  0  0  0  0  0  0  0  0  0  0
   -6.7229   -1.6844    0.0000 C   0  0  0  0  0  0  0  0  0  0  0  0
   -8.1077   -2.2610    0.0000 N   0  0  0  0  0  0  0  0  0  0  0  0
   -9.0839   -1.1222    0.0000 N   0  0  0  0  0  0  0  0  0  0  0  0
   -8.3026    0.1582    0.0000 C   0  0  0  0  0  0  0  0  0  0  0  0
   -6.8434   -0.1893    0.0000 C   0  0  0  0  0  0  0  0  0  0  0  0
   -5.6088    0.6626    0.0000 C   0  0  0  0  0  0  0  0  0  0  0  0
   -5.7292    2.1578    0.0000 C   0  0  0  0  0  0  0  0  0  0  0  0
   -6.5811    3.3924    0.0000 C   0  0  0  0  0  0  0  0  0  0  0  0
   -5.0860    3.5129    0.0000 C   0  0  0  0  0  0  0  0  0  0  0  0
  1  2  1  0
  2  3  1  0
  3  4  2  0
  4  5  1  0
  5  6  2  0
  6  7  1  0
  7  8  2  0
  8  9  1  0
  9 10  2  0
  9 11  1  0
 11 12  1  0
 12 13  1  0
 13 14  1  0
 13 15  1  0
  8 16  1  0
 16 17  2  0
  4 18  1  0
 18 19  2  0
 19 20  1  0
 20 21  1  0
 21 22  2  0
 22 23  1  0
 23 24  2  0
 24 25  1  0
 25 26  1  0
 26 27  2  0
 27 28  1  0
 28 29  2  0
 29 30  1  0
 30 31  1  0
 31 32  1  0
 19  2  1  0
 29 21  1  0
 32 30  1  0
 17  5  1  0
 28 24  1  0
M  END
>  <BrandName>  (218) 


>  <Applicants>  (218) 
('Redx Pharma',)

>  <CHEMBL_ID>  (218) 
CHEMBL5314495

>  <Canonical_Smiles>  (218) 
Cn1nc(-c2ccc(C(=O)NCC(F)F)cc2)nc1Nc1ccc2[nH]ncc2c1C1CC1

>  <Chirality>  (218) 
Achiral Molecule

>  <First_Approval>  (218) 
nan

>  <Phase>  (218) 
2.0

>  <SC_Patent>  (218) 
nan

>  <Synonyms>  (218) 
ZELASUDIL

>  <Withdrawn>  (218) 
nan

>  <Indications>  (218) 
nan

>  <Type>  (218) 
nan

>  <targets_id>  (218) 
nan

>  <Inchi>  (218) 
InChI=1S/C22H21F2N7O/c1-31-22(27-17-9-8-16-15(10-26-29-16)19(17)12-2-3-12)28-20(30-31)13-4-6-14(7-5-13)21(32)25-11-18(23)24/h4-10,12,18H,2-3,11H2,1H3,(H,25,32)(H,26,29)(H,27,28,30)

>  <stdInchikey>  (218) 
HSZPZEGJQCFGDE-UHFFFAOYSA-N

>  <csid>  (218) 
128921246

>  <Links>  (218) 
|http://www.chemspider.com/Chemical-Structure.128921246.html|https://www.ebi.ac.uk/chembldb/compound/inspect/CHEMBL5314495|https://pubchem.ncbi.nlm.nih.gov/compound/155792249

>  <LinkName>  (218) 
|ChemSpider|ChEMBL|PubChem

>  <lig_pdb_ID>  (218) 


>  <pdb_IDs>  (218) 


>  <indicationDB>  (218) 


>  <uniprotId>  (218) 


>  <indicationG2P>  (218) 


>  <MW>  (218) 
437.2

>  <HBA>  (218) 
6

>  <HBD>  (218) 
3

>  <NRB>  (218) 
7

>  <TPSA>  (218) 
100.5

>  <LogP>  (218) 
4.0

>  <RoF>  (218) 
0

>  <Melting point>  (218) 
nan

>  <Targets>  (218) 
nan

>  <Kinase families>  (218) 


>  <FDA_approved>  (218) 


$$$$
Zapnometinib
     RDKit          2D

 20 21  0  0  0  0  0  0  0  0999 V2000
   -3.0601    1.3712    0.0000 C   0  0  0  0  0  0  0  0  0  0  0  0
   -1.6383    0.8933    0.0000 C   0  0  0  0  0  0  0  0  0  0  0  0
   -1.3412   -0.5770    0.0000 C   0  0  0  0  0  0  0  0  0  0  0  0
   -2.4660   -1.5694    0.0000 C   0  0  0  0  0  0  0  0  0  0  0  0
   -3.8879   -1.0915    0.0000 C   0  0  0  0  0  0  0  0  0  0  0  0
   -4.1849    0.3788    0.0000 C   0  0  0  0  0  0  0  0  0  0  0  0
   -5.6067    0.8567    0.0000 I   0  0  0  0  0  0  0  0  0  0  0  0
   -2.1690   -3.0397    0.0000 Cl  0  0  0  0  0  0  0  0  0  0  0  0
    0.0806   -1.0549    0.0000 N   0  0  0  0  0  0  0  0  0  0  0  0
    1.2054   -0.0625    0.0000 C   0  0  0  0  0  0  0  0  0  0  0  0
    2.6272   -0.5404    0.0000 C   0  0  0  0  0  0  0  0  0  0  0  0
    3.7520    0.4520    0.0000 C   0  0  0  0  0  0  0  0  0  0  0  0
    3.4550    1.9222    0.0000 C   0  0  0  0  0  0  0  0  0  0  0  0
    2.0331    2.4001    0.0000 C   0  0  0  0  0  0  0  0  0  0  0  0
    0.9083    1.4078    0.0000 C   0  0  0  0  0  0  0  0  0  0  0  0
   -0.5135    1.8857    0.0000 F   0  0  0  0  0  0  0  0  0  0  0  0
    1.7361    3.8704    0.0000 F   0  0  0  0  0  0  0  0  0  0  0  0
    2.9243   -2.0107    0.0000 C   0  0  0  0  0  0  0  0  0  0  0  0
    1.7995   -3.0031    0.0000 O   0  0  0  0  0  0  0  0  0  0  0  0
    4.3461   -2.4886    0.0000 O   0  0  0  0  0  0  0  0  0  0  0  0
  1  2  2  0
  2  3  1  0
  3  4  2  0
  4  5  1  0
  5  6  2  0
  6  7  1  0
  4  8  1  0
  3  9  1  0
  9 10  1  0
 10 11  2  0
 11 12  1  0
 12 13  2  0
 13 14  1  0
 14 15  2  0
 15 16  1  0
 14 17  1  0
 11 18  1  0
 18 19  2  0
 18 20  1  0
  6  1  1  0
 15 10  1  0
M  END
>  <BrandName>  (219) 


>  <Applicants>  (219) 
University of Muenster

>  <CHEMBL_ID>  (219) 
CHEMBL481949

>  <Canonical_Smiles>  (219) 
C1=CC(=C(C=C1I)Cl)NC2=C(C=CC(=C2F)F)C(=O)O

>  <Chirality>  (219) 
Achiral Molecule

>  <First_Approval>  (219) 
nan

>  <Phase>  (219) 
2.0

>  <SC_Patent>  (219) 
nan

>  <Synonyms>  (219) 
ATR 002 | ATR-002 | ATR002 | PD-0184264 | ZAPNOMETINIB

>  <Withdrawn>  (219) 
nan

>  <Indications>  (219) 
nan

>  <Type>  (219) 
nan

>  <targets_id>  (219) 
nan

>  <Inchi>  (219) 
InChI=1S/C13H7ClF2INO2/c14-8-5-6(17)1-4-10(8)18-12-7(13(19)20)2-3-9(15)11(12)16/h1-5,18H,(H,19,20)

>  <stdInchikey>  (219) 
XCNBGWKQXRQKSA-UHFFFAOYSA-N

>  <csid>  (219) 
8287717

>  <Links>  (219) 
|http://www.chemspider.com/Chemical-Structure.8287717.html|https://www.ebi.ac.uk/chembldb/compound/inspect/CHEMBL481949|https://pubchem.ncbi.nlm.nih.gov/compound/10112191|https://go.drugbank.com/drugs/DB18244|https://zinc15.docking.org/substances/ZINC000022054634|https://precision.fda.gov/uniisearch/srs/unii/4RZD8LK83V

>  <LinkName>  (219) 
|ChemSpider|ChEMBL|PubChem|DrugBank|ZINC|FDA SRS

>  <lig_pdb_ID>  (219) 


>  <pdb_IDs>  (219) 


>  <indicationDB>  (219) 


>  <uniprotId>  (219) 


>  <indicationG2P>  (219) 


>  <MW>  (219) 
408.9

>  <HBA>  (219) 
2

>  <HBD>  (219) 
2

>  <NRB>  (219) 
3

>  <TPSA>  (219) 
49.3

>  <LogP>  (219) 
4.7

>  <RoF>  (219) 
0

>  <Melting point>  (219) 
nan

>  <Targets>  (219) 
nan

>  <Kinase families>  (219) 


>  <FDA_approved>  (219) 


$$$$
Talmapimod
     RDKit          2D

 36 39  0  0  0  0  0  0  0  0999 V2000
   -1.3305   -4.4610    0.0000 C   0  0  0  0  0  0  0  0  0  0  0  0
   -2.0505   -3.1451    0.0000 C   0  0  0  0  0  0  0  0  0  0  0  0
   -3.5501   -3.1107    0.0000 C   0  0  0  0  0  0  0  0  0  0  0  0
   -4.2701   -1.7948    0.0000 N   0  0  0  0  0  0  0  0  0  0  0  0
   -3.4905   -0.5133    0.0000 C   0  0  0  0  0  0  0  0  0  0  0  0
   -1.9909   -0.5477    0.0000 C   0  0  0  0  0  0  0  0  0  0  0  0
   -1.2709   -1.8636    0.0000 N   0  0  0  0  0  0  0  0  0  0  0  0
    0.2287   -1.8980    0.0000 C   0  0  0  0  0  0  0  0  0  0  0  0
    0.9487   -3.2139    0.0000 O   0  0  0  0  0  0  0  0  0  0  0  0
    1.0083   -0.6165    0.0000 C   0  0  0  0  0  0  0  0  0  0  0  0
    2.5079   -0.6509    0.0000 C   0  0  0  0  0  0  0  0  0  0  0  0
    3.2875    0.6306    0.0000 C   0  0  0  0  0  0  0  0  0  0  0  0
    2.5675    1.9465    0.0000 C   0  0  0  0  0  0  0  0  0  0  0  0
    1.0679    1.9809    0.0000 C   0  0  0  0  0  0  0  0  0  0  0  0
    0.2883    0.6994    0.0000 C   0  0  0  0  0  0  0  0  0  0  0  0
   -1.2113    0.7338    0.0000 Cl  0  0  0  0  0  0  0  0  0  0  0  0
    3.5965    3.0379    0.0000 N   0  0  0  0  0  0  0  0  0  0  0  0
    4.9524    2.3965    0.0000 C   0  0  0  0  0  0  0  0  0  0  0  0
    4.7615    0.9087    0.0000 C   0  0  0  0  0  0  0  0  0  0  0  0
    5.8529   -0.1203    0.0000 C   0  0  0  0  0  0  0  0  0  0  0  0
    5.5075   -1.5799    0.0000 O   0  0  0  0  0  0  0  0  0  0  0  0
    7.2897    0.3104    0.0000 C   0  0  0  0  0  0  0  0  0  0  0  0
    7.6352    1.7701    0.0000 O   0  0  0  0  0  0  0  0  0  0  0  0
    8.3811   -0.7186    0.0000 N   0  0  0  0  0  0  0  0  0  0  0  0
    9.8180   -0.2879    0.0000 C   0  0  0  0  0  0  0  0  0  0  0  0
    8.0357   -2.1782    0.0000 C   0  0  0  0  0  0  0  0  0  0  0  0
    3.3183    4.5119    0.0000 C   0  0  0  0  0  0  0  0  0  0  0  0
   -4.2105    0.8026    0.0000 C   0  0  0  0  0  0  0  0  0  0  0  0
   -5.7697   -1.7604    0.0000 C   0  0  0  0  0  0  0  0  0  0  0  0
   -6.4897   -0.4445    0.0000 C   0  0  0  0  0  0  0  0  0  0  0  0
   -5.7101    0.8370    0.0000 C   0  0  0  0  0  0  0  0  0  0  0  0
   -6.4302    2.1529    0.0000 C   0  0  0  0  0  0  0  0  0  0  0  0
   -7.9298    2.1873    0.0000 C   0  0  0  0  0  0  0  0  0  0  0  0
   -8.7094    0.9058    0.0000 C   0  0  0  0  0  0  0  0  0  0  0  0
   -7.9893   -0.4101    0.0000 C   0  0  0  0  0  0  0  0  0  0  0  0
   -8.6498    3.5032    0.0000 F   0  0  0  0  0  0  0  0  0  0  0  0
  2  1  1  6
  2  3  1  0
  3  4  1  0
  4  5  1  0
  5  6  1  0
  6  7  1  0
  7  8  1  0
  8  9  2  0
  8 10  1  0
 10 11  2  0
 11 12  1  0
 12 13  2  0
 13 14  1  0
 14 15  2  0
 15 16  1  0
 13 17  1  0
 17 18  1  0
 18 19  2  0
 19 20  1  0
 20 21  2  0
 20 22  1  0
 22 23  2  0
 22 24  1  0
 24 25  1  0
 24 26  1  0
 17 27  1  0
  5 28  1  1
  4 29  1  0
 29 30  1  0
 30 31  2  0
 31 32  1  0
 32 33  2  0
 33 34  1  0
 34 35  2  0
 33 36  1  0
  7  2  1  0
 15 10  1  0
 19 12  1  0
 35 30  1  0
M  END
>  <BrandName>  (220) 


>  <Applicants>  (220) 
Scios inc

>  <CHEMBL_ID>  (220) 
CHEMBL514201

>  <Canonical_Smiles>  (220) 
C[C@@H]1CN([C@H](CN1C(=O)c2cc3c(cc2Cl)n(cc3C(=O)C(=O)N(C)C)C)C)Cc4ccc(cc4)F

>  <Chirality>  (220) 
Single Stereoisomer

>  <First_Approval>  (220) 
nan

>  <Phase>  (220) 
2.0

>  <SC_Patent>  (220) 
nan

>  <Synonyms>  (220) 
SCIO 469 | SCIO-469 | TALMAPIMOD

>  <Withdrawn>  (220) 
nan

>  <Indications>  (220) 
Investigated for use/treatment in pain (acute or chronic) and rheumatoid arthritis.

>  <Type>  (220) 
1

>  <targets_id>  (220) 
Q16539

>  <Inchi>  (220) 
InChI=1S/C27H30ClFN4O3/c1-16-13-33(17(2)12-32(16)14-18-6-8-19(29)9-7-18)26(35)21-10-20-22(25(34)27(36)30(3)4)15-31(5)24(20)11-23(21)28/h6-11,15-17H,12-14H2,1-5H3/t16-,17+/m0/s1

>  <stdInchikey>  (220) 
ZMELOYOKMZBMRB-DLBZAZTESA-N

>  <csid>  (220) 
8046764

>  <Links>  (220) 
|http://www.chemspider.com/Chemical-Structure.8046764.html|https://www.ebi.ac.uk/chembldb/compound/inspect/CHEMBL514201|https://pubchem.ncbi.nlm.nih.gov/compound/9871074|https://go.drugbank.com/drugs/DB05412|https://www.rcsb.org/ligand/469|https://www.ebi.ac.uk/pdbe-srv/pdbechem/chemicalCompound/show/469|https://www.guidetopharmacology.org/GRAC/LigandDisplayForward?7817|https://zinc15.docking.org/substances/ZINC000034001955|https://precision.fda.gov/uniisearch/srs/unii/B1E00KQ6NT|https://www.bindingdb.org/bind/chemsearch/marvin/MolStructure.jsp?monomerid=50266947

>  <LinkName>  (220) 
|ChemSpider|ChEMBL|PubChem|DrugBank|RCSB|PDBe|Guide to Pharmacology|ZINC|FDA SRS|BindingDB

>  <lig_pdb_ID>  (220) 
469

>  <pdb_IDs>  (220) 
3hub 3zsh

>  <indicationDB>  (220) 


>  <uniprotId>  (220) 


>  <indicationG2P>  (220) 
None

>  <MW>  (220) 
512.2

>  <HBA>  (220) 
5

>  <HBD>  (220) 
0

>  <NRB>  (220) 
5

>  <TPSA>  (220) 
65.9

>  <LogP>  (220) 
4.0

>  <RoF>  (220) 
1

>  <Melting point>  (220) 
nan

>  <Targets>  (220) 
MAPK14

>  <Kinase families>  (220) 
CMGC

>  <FDA_approved>  (220) 


$$$$
Poseltinib
     RDKit          2D

 35 39  0  0  0  0  0  0  0  0999 V2000
   11.3586    1.2439    0.0000 C   0  0  0  0  0  0  0  0  0  0  0  0
    9.8599    1.1826    0.0000 N   0  0  0  0  0  0  0  0  0  0  0  0
    9.1636   -0.1460    0.0000 C   0  0  0  0  0  0  0  0  0  0  0  0
    7.6649   -0.2074    0.0000 C   0  0  0  0  0  0  0  0  0  0  0  0
    6.8624    1.0599    0.0000 N   0  0  0  0  0  0  0  0  0  0  0  0
    7.5587    2.3885    0.0000 C   0  0  0  0  0  0  0  0  0  0  0  0
    9.0574    2.4499    0.0000 C   0  0  0  0  0  0  0  0  0  0  0  0
    5.3637    0.9986    0.0000 C   0  0  0  0  0  0  0  0  0  0  0  0
    4.5612    2.2659    0.0000 C   0  0  0  0  0  0  0  0  0  0  0  0
    3.0624    2.2045    0.0000 C   0  0  0  0  0  0  0  0  0  0  0  0
    2.3662    0.8759    0.0000 C   0  0  0  0  0  0  0  0  0  0  0  0
    3.1687   -0.3914    0.0000 C   0  0  0  0  0  0  0  0  0  0  0  0
    4.6674   -0.3300    0.0000 C   0  0  0  0  0  0  0  0  0  0  0  0
    0.8674    0.8146    0.0000 N   0  0  0  0  0  0  0  0  0  0  0  0
    0.1712   -0.5140    0.0000 C   0  0  0  0  0  0  0  0  0  0  0  0
    0.9736   -1.7813    0.0000 N   0  0  0  0  0  0  0  0  0  0  0  0
    0.2774   -3.1099    0.0000 C   0  0  0  0  0  0  0  0  0  0  0  0
    0.7989   -4.5164    0.0000 C   0  0  0  0  0  0  0  0  0  0  0  0
   -0.3776   -5.4469    0.0000 C   0  0  0  0  0  0  0  0  0  0  0  0
   -1.6262   -4.6156    0.0000 O   0  0  0  0  0  0  0  0  0  0  0  0
   -1.2214   -3.1713    0.0000 C   0  0  0  0  0  0  0  0  0  0  0  0
   -2.0238   -1.9040    0.0000 C   0  0  0  0  0  0  0  0  0  0  0  0
   -1.3276   -0.5754    0.0000 N   0  0  0  0  0  0  0  0  0  0  0  0
   -3.5226   -1.9653    0.0000 O   0  0  0  0  0  0  0  0  0  0  0  0
   -4.3251   -0.6980    0.0000 C   0  0  0  0  0  0  0  0  0  0  0  0
   -3.6288    0.6306    0.0000 C   0  0  0  0  0  0  0  0  0  0  0  0
   -4.4313    1.8979    0.0000 C   0  0  0  0  0  0  0  0  0  0  0  0
   -5.9301    1.8365    0.0000 C   0  0  0  0  0  0  0  0  0  0  0  0
   -6.6263    0.5079    0.0000 C   0  0  0  0  0  0  0  0  0  0  0  0
   -5.8238   -0.7594    0.0000 C   0  0  0  0  0  0  0  0  0  0  0  0
   -8.1251    0.4466    0.0000 N   0  0  0  0  0  0  0  0  0  0  0  0
   -8.9275    1.7139    0.0000 C   0  0  0  0  0  0  0  0  0  0  0  0
   -8.2313    3.0425    0.0000 O   0  0  0  0  0  0  0  0  0  0  0  0
  -10.4263    1.6525    0.0000 C   0  0  0  0  0  0  0  0  0  0  0  0
  -11.2288    2.9198    0.0000 C   0  0  0  0  0  0  0  0  0  0  0  0
  1  2  1  0
  2  3  1  0
  3  4  1  0
  4  5  1  0
  5  6  1  0
  6  7  1  0
  5  8  1  0
  8  9  2  0
  9 10  1  0
 10 11  2  0
 11 12  1  0
 12 13  2  0
 11 14  1  0
 14 15  1  0
 15 16  2  0
 16 17  1  0
 17 18  1  0
 18 19  2  0
 19 20  1  0
 20 21  1  0
 21 22  1  0
 22 23  2  0
 22 24  1  0
 24 25  1  0
 25 26  2  0
 26 27  1  0
 27 28  2  0
 28 29  1  0
 29 30  2  0
 29 31  1  0
 31 32  1  0
 32 33  2  0
 32 34  1  0
 34 35  2  0
  7  2  1  0
 13  8  1  0
 23 15  1  0
 21 17  2  0
 30 25  1  0
M  END
>  <BrandName>  (221) 


>  <Applicants>  (221) 
Hanmi Pharmaceutical

>  <CHEMBL_ID>  (221) 
CHEMBL4163691

>  <Canonical_Smiles>  (221) 
CN1CCN(CC1)c2ccc(cc2)Nc3nc4ccoc4c(n3)Oc5cccc(c5)NC(=O)C=C

>  <Chirality>  (221) 
Achiral Molecule

>  <First_Approval>  (221) 
nan

>  <Phase>  (221) 
2.0

>  <SC_Patent>  (221) 
nan

>  <Synonyms>  (221) 
HM-71224 | HM71224 | LY3337641 | POSELTINIB

>  <Withdrawn>  (221) 
nan

>  <Indications>  (221) 
nan

>  <Type>  (221) 
nan

>  <targets_id>  (221) 
nan

>  <Inchi>  (221) 
InChI=1S/C26H26N6O3/c1-3-23(33)27-19-5-4-6-21(17-19)35-25-24-22(11-16-34-24)29-26(30-25)28-18-7-9-20(10-8-18)32-14-12-31(2)13-15-32/h3-11,16-17H,1,12-15H2,2H3,(H,27,33)(H,28,29,30)

>  <stdInchikey>  (221) 
LZMJNVRJMFMYQS-UHFFFAOYSA-N

>  <csid>  (221) 
58826582

>  <Links>  (221) 
|http://www.chemspider.com/Chemical-Structure.58826582.html|https://www.ebi.ac.uk/chembldb/compound/inspect/CHEMBL4163691|https://pubchem.ncbi.nlm.nih.gov/compound/56644522|https://go.drugbank.com/drugs/DB16299|https://www.guidetopharmacology.org/GRAC/LigandDisplayForward?9862|https://precision.fda.gov/uniisearch/srs/unii/D01E4B1U35|https://www.bindingdb.org/bind/chemsearch/marvin/MolStructure.jsp?monomerid=50369724

>  <LinkName>  (221) 
|ChemSpider|ChEMBL|PubChem|DrugBank|Guide to Pharmacology|FDA SRS|BindingDB

>  <lig_pdb_ID>  (221) 


>  <pdb_IDs>  (221) 


>  <indicationDB>  (221) 


>  <uniprotId>  (221) 


>  <indicationG2P>  (221) 
None

>  <MW>  (221) 
470.2

>  <HBA>  (221) 
8

>  <HBD>  (221) 
2

>  <NRB>  (221) 
7

>  <TPSA>  (221) 
95.8

>  <LogP>  (221) 
4.6

>  <RoF>  (221) 
0

>  <Melting point>  (221) 
nan

>  <Targets>  (221) 
nan

>  <Kinase families>  (221) 


>  <FDA_approved>  (221) 


$$$$
Merestinib
     RDKit          2D

 41 46  0  0  0  0  0  0  0  0999 V2000
    8.2665   -2.6851    0.0000 C   0  0  0  0  0  0  0  0  0  0  0  0
    6.8088   -2.3313    0.0000 C   0  0  0  0  0  0  0  0  0  0  0  0
    5.7736   -3.4169    0.0000 C   0  0  0  0  0  0  0  0  0  0  0  0
    4.3159   -3.0631    0.0000 C   0  0  0  0  0  0  0  0  0  0  0  0
    3.8935   -1.6238    0.0000 C   0  0  0  0  0  0  0  0  0  0  0  0
    4.9287   -0.5383    0.0000 C   0  0  0  0  0  0  0  0  0  0  0  0
    4.5062    0.9010    0.0000 O   0  0  0  0  0  0  0  0  0  0  0  0
    6.3863   -0.8921    0.0000 N   0  0  0  0  0  0  0  0  0  0  0  0
    7.4215    0.1935    0.0000 C   0  0  0  0  0  0  0  0  0  0  0  0
    8.8792   -0.1603    0.0000 C   0  0  0  0  0  0  0  0  0  0  0  0
    9.9144    0.9252    0.0000 C   0  0  0  0  0  0  0  0  0  0  0  0
    9.4920    2.3645    0.0000 C   0  0  0  0  0  0  0  0  0  0  0  0
    8.0343    2.7183    0.0000 C   0  0  0  0  0  0  0  0  0  0  0  0
    6.9991    1.6327    0.0000 C   0  0  0  0  0  0  0  0  0  0  0  0
   10.5272    3.4500    0.0000 F   0  0  0  0  0  0  0  0  0  0  0  0
    2.4358   -1.2701    0.0000 C   0  0  0  0  0  0  0  0  0  0  0  0
    1.4006   -2.3556    0.0000 O   0  0  0  0  0  0  0  0  0  0  0  0
    2.0133    0.1692    0.0000 N   0  0  0  0  0  0  0  0  0  0  0  0
    0.5556    0.5229    0.0000 C   0  0  0  0  0  0  0  0  0  0  0  0
    0.1331    1.9622    0.0000 C   0  0  0  0  0  0  0  0  0  0  0  0
   -1.3246    2.3160    0.0000 C   0  0  0  0  0  0  0  0  0  0  0  0
   -2.3598    1.2304    0.0000 C   0  0  0  0  0  0  0  0  0  0  0  0
   -1.9373   -0.2088    0.0000 C   0  0  0  0  0  0  0  0  0  0  0  0
   -0.4796   -0.5626    0.0000 C   0  0  0  0  0  0  0  0  0  0  0  0
   -2.9725   -1.2943    0.0000 F   0  0  0  0  0  0  0  0  0  0  0  0
   -3.8175    1.5842    0.0000 O   0  0  0  0  0  0  0  0  0  0  0  0
   -4.8527    0.4987    0.0000 C   0  0  0  0  0  0  0  0  0  0  0  0
   -4.4302   -0.9406    0.0000 C   0  0  0  0  0  0  0  0  0  0  0  0
   -5.4654   -2.0261    0.0000 C   0  0  0  0  0  0  0  0  0  0  0  0
   -5.3514   -3.5218    0.0000 C   0  0  0  0  0  0  0  0  0  0  0  0
   -6.7386   -4.0924    0.0000 N   0  0  0  0  0  0  0  0  0  0  0  0
   -7.7100   -2.9494    0.0000 N   0  0  0  0  0  0  0  0  0  0  0  0
   -6.9231   -1.6724    0.0000 C   0  0  0  0  0  0  0  0  0  0  0  0
   -7.3456   -0.2331    0.0000 C   0  0  0  0  0  0  0  0  0  0  0  0
   -6.3104    0.8524    0.0000 C   0  0  0  0  0  0  0  0  0  0  0  0
   -6.7329    2.2917    0.0000 C   0  0  0  0  0  0  0  0  0  0  0  0
   -8.1456    2.7959    0.0000 C   0  0  0  0  0  0  0  0  0  0  0  0
   -8.1026    4.2953    0.0000 N   0  0  0  0  0  0  0  0  0  0  0  0
   -6.6634    4.7178    0.0000 N   0  0  0  0  0  0  0  0  0  0  0  0
   -5.8168    3.4795    0.0000 C   0  0  0  0  0  0  0  0  0  0  0  0
   -9.2056   -3.0634    0.0000 C   0  0  0  0  0  0  0  0  0  0  0  0
  1  2  1  0
  2  3  2  0
  3  4  1  0
  4  5  2  0
  5  6  1  0
  6  7  2  0
  6  8  1  0
  8  9  1  0
  9 10  2  0
 10 11  1  0
 11 12  2  0
 12 13  1  0
 13 14  2  0
 12 15  1  0
  5 16  1  0
 16 17  2  0
 16 18  1  0
 18 19  1  0
 19 20  2  0
 20 21  1  0
 21 22  2  0
 22 23  1  0
 23 24  2  0
 23 25  1  0
 22 26  1  0
 26 27  1  0
 27 28  2  0
 28 29  1  0
 29 30  1  0
 30 31  2  0
 31 32  1  0
 32 33  1  0
 33 34  1  0
 34 35  2  0
 35 36  1  0
 36 37  2  0
 37 38  1  0
 38 39  1  0
 39 40  2  0
 32 41  1  0
  8  2  1  0
 14  9  1  0
 24 19  1  0
 35 27  1  0
 33 29  2  0
 40 36  1  0
M  END
>  <BrandName>  (222) 


>  <Applicants>  (222) 
Eli Lilly

>  <CHEMBL_ID>  (222) 
CHEMBL3545307

>  <Canonical_Smiles>  (222) 
Cc1ccc(c(=O)n1c2ccc(cc2)F)C(=O)Nc3ccc(c(c3)F)Oc4cc5cnn(c5cc4c6c[nH]nc6)C

>  <Chirality>  (222) 
Achiral Molecule

>  <First_Approval>  (222) 
nan

>  <Phase>  (222) 
2.0

>  <SC_Patent>  (222) 
nan

>  <Synonyms>  (222) 
LY-2801653 | LY2801653 | MERESTINIB

>  <Withdrawn>  (222) 
nan

>  <Indications>  (222) 
nan

>  <Type>  (222) 
2

>  <targets_id>  (222) 
P08581

>  <Inchi>  (222) 
InChI=1S/C30H22F2N6O3/c1-17-3-9-23(30(40)38(17)22-7-4-20(31)5-8-22)29(39)36-21-6-10-27(25(32)12-21)41-28-11-18-16-35-37(2)26(18)13-24(28)19-14-33-34-15-19/h3-16H,1-2H3,(H,33,34)(H,36,39)

>  <stdInchikey>  (222) 
QHADVLVFMKEIIP-UHFFFAOYSA-N

>  <csid>  (222) 
29361338

>  <Links>  (222) 
|http://www.chemspider.com/Chemical-Structure.29361338.html|https://www.ebi.ac.uk/chembldb/compound/inspect/CHEMBL3545307|https://pubchem.ncbi.nlm.nih.gov/compound/44603533|https://go.drugbank.com/drugs/DB12381|https://www.rcsb.org/ligand/L1X|https://www.ebi.ac.uk/pdbe-srv/pdbechem/chemicalCompound/show/L1X|https://www.guidetopharmacology.org/GRAC/LigandDisplayForward?9841|https://zinc15.docking.org/substances/ZINC000095926668|https://precision.fda.gov/uniisearch/srs/unii/5OGS5K699E|https://www.bindingdb.org/bind/chemsearch/marvin/MolStructure.jsp?monomerid=50172078

>  <LinkName>  (222) 
|ChemSpider|ChEMBL|PubChem|DrugBank|RCSB|PDBe|Guide to Pharmacology|ZINC|FDA SRS|BindingDB

>  <lig_pdb_ID>  (222) 
L1X

>  <pdb_IDs>  (222) 
4eev 7aay

>  <indicationDB>  (222) 


>  <uniprotId>  (222) 


>  <indicationG2P>  (222) 
None

>  <MW>  (222) 
552.2

>  <HBA>  (222) 
7

>  <HBD>  (222) 
2

>  <NRB>  (222) 
6

>  <TPSA>  (222) 
106.8

>  <LogP>  (222) 
5.7

>  <RoF>  (222) 
2

>  <Melting point>  (222) 
nan

>  <Targets>  (222) 
MET

>  <Kinase families>  (222) 
Tyr

>  <FDA_approved>  (222) 


$$$$
Eclitasertib
     RDKit          2D

 28 31  0  0  0  0  0  0  0  0999 V2000
    3.2058    2.7153    0.0000 C   0  0  0  0  0  0  0  0  0  0  0  0
    3.4864    1.2418    0.0000 N   0  0  0  0  0  0  0  0  0  0  0  0
    2.2806    0.3496    0.0000 C   0  0  0  0  0  0  0  0  0  0  0  0
    0.9536    1.0489    0.0000 O   0  0  0  0  0  0  0  0  0  0  0  0
    2.2263   -1.1494    0.0000 C   0  0  0  0  0  0  0  0  0  0  0  0
    0.8522   -1.7509    0.0000 N   0  0  0  0  0  0  0  0  0  0  0  0
   -0.3557   -0.8617    0.0000 C   0  0  0  0  0  0  0  0  0  0  0  0
   -0.1896    0.6291    0.0000 O   0  0  0  0  0  0  0  0  0  0  0  0
   -1.7299   -1.4632    0.0000 C   0  0  0  0  0  0  0  0  0  0  0  0
   -2.0509   -2.9284    0.0000 N   0  0  0  0  0  0  0  0  0  0  0  0
   -3.5437   -3.0758    0.0000 N   0  0  0  0  0  0  0  0  0  0  0  0
   -4.1452   -1.7017    0.0000 C   0  0  0  0  0  0  0  0  0  0  0  0
   -5.6104   -1.3807    0.0000 C   0  0  0  0  0  0  0  0  0  0  0  0
   -6.0650    0.0488    0.0000 C   0  0  0  0  0  0  0  0  0  0  0  0
   -5.0543    1.1572    0.0000 C   0  0  0  0  0  0  0  0  0  0  0  0
   -5.5089    2.5867    0.0000 C   0  0  0  0  0  0  0  0  0  0  0  0
   -6.9741    2.9077    0.0000 C   0  0  0  0  0  0  0  0  0  0  0  0
   -7.9848    1.7993    0.0000 C   0  0  0  0  0  0  0  0  0  0  0  0
   -7.5302    0.3699    0.0000 C   0  0  0  0  0  0  0  0  0  0  0  0
   -3.0242   -0.7050    0.0000 N   0  0  0  0  0  0  0  0  0  0  0  0
    3.3645   -2.1265    0.0000 C   0  0  0  0  0  0  0  0  0  0  0  0
    4.8380   -1.8458    0.0000 O   0  0  0  0  0  0  0  0  0  0  0  0
    5.5373   -0.5188    0.0000 C   0  0  0  0  0  0  0  0  0  0  0  0
    7.0281   -0.6850    0.0000 C   0  0  0  0  0  0  0  0  0  0  0  0
    7.9173    0.5230    0.0000 C   0  0  0  0  0  0  0  0  0  0  0  0
    7.3158    1.8971    0.0000 C   0  0  0  0  0  0  0  0  0  0  0  0
    5.8251    2.0633    0.0000 N   0  0  0  0  0  0  0  0  0  0  0  0
    4.9358    0.8553    0.0000 C   0  0  0  0  0  0  0  0  0  0  0  0
  1  2  1  0
  2  3  1  0
  3  4  2  0
  3  5  1  0
  5  6  1  6
  6  7  1  0
  7  8  2  0
  7  9  1  0
  9 10  2  0
 10 11  1  0
 11 12  1  0
 12 13  1  0
 13 14  1  0
 14 15  2  0
 15 16  1  0
 16 17  2  0
 17 18  1  0
 18 19  2  0
 12 20  2  0
  5 21  1  0
 21 22  1  0
 22 23  1  0
 23 24  2  0
 24 25  1  0
 25 26  2  0
 26 27  1  0
 27 28  2  0
 28  2  1  0
 20  9  1  0
 28 23  1  0
 19 14  1  0
M  END
>  <BrandName>  (223) 


>  <Applicants>  (223) 
Sanofi

>  <CHEMBL_ID>  (223) 
CHEMBL4861471

>  <Canonical_Smiles>  (223) 
CN1C(=O)[C@@H](NC(=O)c2n[nH]c(Cc3ccccc3)n2)COc2cccnc21

>  <Chirality>  (223) 
Single Stereoisomer

>  <First_Approval>  (223) 
nan

>  <Phase>  (223) 
2.0

>  <SC_Patent>  (223) 
nan

>  <Synonyms>  (223) 
DNL-758 | DNL758 | ECLITASERTIB | SAR-443122 | SAR443122

>  <Withdrawn>  (223) 
nan

>  <Indications>  (223) 
nan

>  <Type>  (223) 
nan

>  <targets_id>  (223) 
nan

>  <Inchi>  (223) 
InChI=1S/C19H18N6O3/c1-25-17-14(8-5-9-20-17)28-11-13(19(25)27)21-18(26)16-22-15(23-24-16)10-12-6-3-2-4-7-12/h2-9,13H,10-11H2,1H3,(H,21,26)(H,22,23,24)/t13-/m0/s1

>  <stdInchikey>  (223) 
XUZICJHIIJCKQQ-ZDUSSCGKSA-N

>  <csid>  (223) 
115009121

>  <Links>  (223) 
|http://www.chemspider.com/Chemical-Structure.115009121.html|https://www.ebi.ac.uk/chembldb/compound/inspect/CHEMBL4861471|https://pubchem.ncbi.nlm.nih.gov/compound/130298939|https://www.guidetopharmacology.org/GRAC/LigandDisplayForward?11308|https://precision.fda.gov/uniisearch/srs/unii/975AT1P9J6

>  <LinkName>  (223) 
|ChemSpider|ChEMBL|PubChem|Guide to Pharmacology|FDA SRS

>  <lig_pdb_ID>  (223) 


>  <pdb_IDs>  (223) 


>  <indicationDB>  (223) 


>  <uniprotId>  (223) 


>  <indicationG2P>  (223) 
None

>  <MW>  (223) 
378.1

>  <HBA>  (223) 
6

>  <HBD>  (223) 
2

>  <NRB>  (223) 
4

>  <TPSA>  (223) 
113.1

>  <LogP>  (223) 
0.9

>  <RoF>  (223) 
0

>  <Melting point>  (223) 
nan

>  <Targets>  (223) 
nan

>  <Kinase families>  (223) 


>  <FDA_approved>  (223) 


$$$$
Pilaralisib
     RDKit          2D

 37 40  0  0  0  0  0  0  0  0999 V2000
   -6.8529   -1.0140    0.0000 C   0  0  0  0  0  0  0  0  0  0  0  0
   -7.5794    0.2983    0.0000 C   0  0  0  0  0  0  0  0  0  0  0  0
   -8.3060    1.6106    0.0000 C   0  0  0  0  0  0  0  0  0  0  0  0
   -6.2671    1.0249    0.0000 C   0  0  0  0  0  0  0  0  0  0  0  0
   -6.2402    2.5247    0.0000 O   0  0  0  0  0  0  0  0  0  0  0  0
   -4.9818    0.2517    0.0000 N   0  0  0  0  0  0  0  0  0  0  0  0
   -3.6695    0.9782    0.0000 C   0  0  0  0  0  0  0  0  0  0  0  0
   -3.6425    2.4780    0.0000 C   0  0  0  0  0  0  0  0  0  0  0  0
   -2.3302    3.2045    0.0000 C   0  0  0  0  0  0  0  0  0  0  0  0
   -1.0449    2.4313    0.0000 C   0  0  0  0  0  0  0  0  0  0  0  0
   -1.0718    0.9316    0.0000 C   0  0  0  0  0  0  0  0  0  0  0  0
   -2.3841    0.2050    0.0000 C   0  0  0  0  0  0  0  0  0  0  0  0
    0.2135    0.1584    0.0000 S   0  0  0  0  0  0  0  0  0  0  0  0
    0.9867    1.4437    0.0000 O   0  0  0  0  0  0  0  0  0  0  0  0
   -0.5597   -1.1270    0.0000 O   0  0  0  0  0  0  0  0  0  0  0  0
    1.4989   -0.6149    0.0000 N   0  0  0  0  0  0  0  0  0  0  0  0
    2.8112    0.1117    0.0000 C   0  0  0  0  0  0  0  0  0  0  0  0
    4.0965   -0.6615    0.0000 C   0  0  0  0  0  0  0  0  0  0  0  0
    5.4088    0.0650    0.0000 N   0  0  0  0  0  0  0  0  0  0  0  0
    5.4358    1.5648    0.0000 C   0  0  0  0  0  0  0  0  0  0  0  0
    6.7481    2.2913    0.0000 C   0  0  0  0  0  0  0  0  0  0  0  0
    6.7750    3.7911    0.0000 C   0  0  0  0  0  0  0  0  0  0  0  0
    5.4897    4.5643    0.0000 C   0  0  0  0  0  0  0  0  0  0  0  0
    4.1774    3.8377    0.0000 C   0  0  0  0  0  0  0  0  0  0  0  0
    4.1504    2.3380    0.0000 C   0  0  0  0  0  0  0  0  0  0  0  0
    2.8381    1.6114    0.0000 N   0  0  0  0  0  0  0  0  0  0  0  0
    4.0696   -2.1613    0.0000 N   0  0  0  0  0  0  0  0  0  0  0  0
    2.7573   -2.8878    0.0000 C   0  0  0  0  0  0  0  0  0  0  0  0
    1.4719   -2.1146    0.0000 C   0  0  0  0  0  0  0  0  0  0  0  0
    0.1596   -2.8412    0.0000 C   0  0  0  0  0  0  0  0  0  0  0  0
    0.1327   -4.3409    0.0000 C   0  0  0  0  0  0  0  0  0  0  0  0
    1.4181   -5.1141    0.0000 C   0  0  0  0  0  0  0  0  0  0  0  0
    2.7304   -4.3876    0.0000 C   0  0  0  0  0  0  0  0  0  0  0  0
    4.0157   -5.1608    0.0000 Cl  0  0  0  0  0  0  0  0  0  0  0  0
   -1.1257   -2.0680    0.0000 O   0  0  0  0  0  0  0  0  0  0  0  0
   -2.4380   -2.7945    0.0000 C   0  0  0  0  0  0  0  0  0  0  0  0
   -8.8917   -0.4282    0.0000 N   0  0  0  0  0  0  0  0  0  0  0  0
  1  2  1  0
  2  3  1  0
  2  4  1  0
  4  5  2  0
  4  6  1  0
  6  7  1  0
  7  8  2  0
  8  9  1  0
  9 10  2  0
 10 11  1  0
 11 12  2  0
 11 13  1  0
 13 14  2  0
 13 15  2  0
 13 16  1  0
 16 17  1  0
 17 18  1  0
 18 19  2  0
 19 20  1  0
 20 21  2  0
 21 22  1  0
 22 23  2  0
 23 24  1  0
 24 25  2  0
 25 26  1  0
 18 27  1  0
 27 28  1  0
 28 29  2  0
 29 30  1  0
 30 31  2  0
 31 32  1  0
 32 33  2  0
 33 34  1  0
 30 35  1  0
 35 36  1  0
  2 37  1  0
 12  7  1  0
 26 17  2  0
 25 20  1  0
 33 28  1  0
M  END
>  <BrandName>  (224) 


>  <Applicants>  (224) 
Sanofi

>  <CHEMBL_ID>  (224) 
CHEMBL3360203

>  <Canonical_Smiles>  (224) 
CC(C)(C(=O)Nc1cccc(c1)S(=O)(=O)Nc2c(nc3ccccc3n2)Nc4cc(ccc4Cl)OC)N

>  <Chirality>  (224) 
Achiral Molecule

>  <First_Approval>  (224) 
nan

>  <Phase>  (224) 
2.0

>  <SC_Patent>  (224) 
nan

>  <Synonyms>  (224) 
PILARALISIB | SAR-245408 | SAR245408 | XL-147 | XL147

>  <Withdrawn>  (224) 
nan

>  <Indications>  (224) 
nan

>  <Type>  (224) 
nan

>  <targets_id>  (224) 
P42336|P42338|O00329|P48736

>  <Inchi>  (224) 
InChI=1S/C25H25ClN6O4S/c1-25(2,27)24(33)28-15-7-6-8-17(13-15)37(34,35)32-23-22(29-19-9-4-5-10-20(19)30-23)31-21-14-16(36-3)11-12-18(21)26/h4-14H,27H2,1-3H3,(H,28,33)(H,29,31)(H,30,32)

>  <stdInchikey>  (224) 
QINPEPAQOBZPOF-UHFFFAOYSA-N

>  <csid>  (224) 
29340997

>  <Links>  (224) 
|http://www.chemspider.com/Chemical-Structure.29340997.html|https://www.ebi.ac.uk/chembldb/compound/inspect/CHEMBL3360203|https://pubchem.ncbi.nlm.nih.gov/compound/56599306|https://go.drugbank.com/drugs/DB11772|https://zinc15.docking.org/substances/ZINC000100472223|https://precision.fda.gov/uniisearch/srs/unii/60ES45KTMK|https://www.bindingdb.org/bind/chemsearch/marvin/MolStructure.jsp?monomerid=50197062

>  <LinkName>  (224) 
|ChemSpider|ChEMBL|PubChem|DrugBank|ZINC|FDA SRS|BindingDB

>  <lig_pdb_ID>  (224) 


>  <pdb_IDs>  (224) 


>  <indicationDB>  (224) 


>  <uniprotId>  (224) 


>  <indicationG2P>  (224) 


>  <MW>  (224) 
540.1

>  <HBA>  (224) 
8

>  <HBD>  (224) 
4

>  <NRB>  (224) 
8

>  <TPSA>  (224) 
148.3

>  <LogP>  (224) 
4.5

>  <RoF>  (224) 
1

>  <Melting point>  (224) 
nan

>  <Targets>  (224) 
PIK3CA; PIK3CB; PIK3CD; PIK3CG

>  <Kinase families>  (224) 
Atypical

>  <FDA_approved>  (224) 


$$$$
Alofanib
     RDKit          2D

 29 31  0  0  0  0  0  0  0  0999 V2000
   -5.3958    0.4642    0.0000 C   0  0  0  0  0  0  0  0  0  0  0  0
   -3.9463    0.8500    0.0000 C   0  0  0  0  0  0  0  0  0  0  0  0
   -3.5557    2.2983    0.0000 C   0  0  0  0  0  0  0  0  0  0  0  0
   -2.1062    2.6841    0.0000 C   0  0  0  0  0  0  0  0  0  0  0  0
   -1.7156    4.1324    0.0000 N   0  0  0  0  0  4  0  0  0  0  0  0
   -2.7745    5.1948    0.0000 O   0  0  0  0  0  0  0  0  0  0  0  0
   -0.2660    4.5183    0.0000 O   0  0  0  0  0  1  0  0  0  0  0  0
   -1.0472    1.6218    0.0000 C   0  0  0  0  0  0  0  0  0  0  0  0
    0.4023    2.0076    0.0000 N   0  0  0  0  0  0  0  0  0  0  0  0
    1.4612    0.9452    0.0000 S   0  0  0  0  0  0  0  0  0  0  0  0
    0.3988   -0.1137    0.0000 O   0  0  0  0  0  0  0  0  0  0  0  0
    2.5236    2.0041    0.0000 O   0  0  0  0  0  0  0  0  0  0  0  0
    2.5201   -0.1172    0.0000 C   0  0  0  0  0  0  0  0  0  0  0  0
    2.1295   -1.5654    0.0000 C   0  0  0  0  0  0  0  0  0  0  0  0
    3.1884   -2.6278    0.0000 C   0  0  0  0  0  0  0  0  0  0  0  0
    4.6380   -2.2420    0.0000 C   0  0  0  0  0  0  0  0  0  0  0  0
    5.0286   -0.7937    0.0000 C   0  0  0  0  0  0  0  0  0  0  0  0
    6.4781   -0.4079    0.0000 C   0  0  0  0  0  0  0  0  0  0  0  0
    6.8687    1.0404    0.0000 O   0  0  0  0  0  0  0  0  0  0  0  0
    7.5370   -1.4703    0.0000 O   0  0  0  0  0  0  0  0  0  0  0  0
    3.9696    0.2687    0.0000 C   0  0  0  0  0  0  0  0  0  0  0  0
   -1.4378    0.1735    0.0000 C   0  0  0  0  0  0  0  0  0  0  0  0
   -2.8874   -0.2124    0.0000 C   0  0  0  0  0  0  0  0  0  0  0  0
   -3.2780   -1.6606    0.0000 C   0  0  0  0  0  0  0  0  0  0  0  0
   -4.7275   -2.0465    0.0000 C   0  0  0  0  0  0  0  0  0  0  0  0
   -5.1181   -3.4947    0.0000 C   0  0  0  0  0  0  0  0  0  0  0  0
   -4.0592   -4.5571    0.0000 C   0  0  0  0  0  0  0  0  0  0  0  0
   -2.6096   -4.1713    0.0000 N   0  0  0  0  0  0  0  0  0  0  0  0
   -2.2190   -2.7230    0.0000 C   0  0  0  0  0  0  0  0  0  0  0  0
  1  2  1  0
  2  3  2  0
  3  4  1  0
  4  5  1  0
  5  6  2  0
  5  7  1  0
  4  8  2  0
  8  9  1  0
  9 10  1  0
 10 11  2  0
 10 12  2  0
 10 13  1  0
 13 14  2  0
 14 15  1  0
 15 16  2  0
 16 17  1  0
 17 18  1  0
 18 19  2  0
 18 20  1  0
 17 21  2  0
  8 22  1  0
 22 23  2  0
 23 24  1  0
 24 25  2  0
 25 26  1  0
 26 27  2  0
 27 28  1  0
 28 29  2  0
 23  2  1  0
 29 24  1  0
 21 13  1  0
M  CHG  2   5   1   7  -1
M  END
>  <BrandName>  (225) 


>  <Applicants>  (225) 
Russian Pharmaceutical Technologies

>  <CHEMBL_ID>  (225) 
CHEMBL4594436

>  <Canonical_Smiles>  (225) 
Cc1cc([N+](=O)[O-])c(NS(=O)(=O)c2cccc(C(=O)O)c2)cc1-c1cccnc1

>  <Chirality>  (225) 
Achiral Molecule

>  <First_Approval>  (225) 
nan

>  <Phase>  (225) 
2.0

>  <SC_Patent>  (225) 
nan

>  <Synonyms>  (225) 
ALOFANIB

>  <Withdrawn>  (225) 
nan

>  <Indications>  (225) 
nan

>  <Type>  (225) 
nan

>  <targets_id>  (225) 
nan

>  <Inchi>  (225) 
InChI=1S/C19H15N3O6S/c1-12-8-18(22(25)26)17(10-16(12)14-5-3-7-20-11-14)21-29(27,28)15-6-2-4-13(9-15)19(23)24/h2-11,21H,1H3,(H,23,24)

>  <stdInchikey>  (225) 
QUQGQIASFYWKAB-UHFFFAOYSA-N

>  <csid>  (225) 
44208820

>  <Links>  (225) 
|http://www.chemspider.com/Chemical-Structure.44208820.html|https://www.ebi.ac.uk/chembldb/compound/inspect/CHEMBL4594436|https://pubchem.ncbi.nlm.nih.gov/compound/86280646|https://precision.fda.gov/uniisearch/srs/unii/LQX7RFK8MZ

>  <LinkName>  (225) 
|ChemSpider|ChEMBL|PubChem|FDA SRS

>  <lig_pdb_ID>  (225) 


>  <pdb_IDs>  (225) 


>  <indicationDB>  (225) 


>  <uniprotId>  (225) 


>  <indicationG2P>  (225) 


>  <MW>  (225) 
413.1

>  <HBA>  (225) 
6

>  <HBD>  (225) 
2

>  <NRB>  (225) 
6

>  <TPSA>  (225) 
139.5

>  <LogP>  (225) 
3.5

>  <RoF>  (225) 
0

>  <Melting point>  (225) 
nan

>  <Targets>  (225) 
nan

>  <Kinase families>  (225) 


>  <FDA_approved>  (225) 


$$$$
Selitrectinib
     RDKit          2D

 28 32  0  0  0  0  0  0  0  0999 V2000
    1.2118   -5.1741    0.0000 C   0  0  0  0  0  0  0  0  0  0  0  0
    0.9538   -3.6964    0.0000 C   0  0  0  0  0  0  0  0  0  0  0  0
   -0.5426   -3.5933    0.0000 C   0  0  0  0  0  0  0  0  0  0  0  0
   -1.8197   -2.8065    0.0000 C   0  0  0  0  0  0  0  0  0  0  0  0
   -2.5849   -1.5163    0.0000 C   0  0  0  0  0  0  0  0  0  0  0  0
   -2.6629   -0.0184    0.0000 C   0  0  0  0  0  0  0  0  0  0  0  0
   -3.9991    0.6631    0.0000 C   0  0  0  0  0  0  0  0  0  0  0  0
   -5.2574   -0.1534    0.0000 C   0  0  0  0  0  0  0  0  0  0  0  0
   -5.1795   -1.6514    0.0000 C   0  0  0  0  0  0  0  0  0  0  0  0
   -3.8432   -2.3328    0.0000 N   0  0  0  0  0  0  0  0  0  0  0  0
   -6.5937    0.5281    0.0000 F   0  0  0  0  0  0  0  0  0  0  0  0
   -2.0358    1.3443    0.0000 C   0  0  0  0  0  0  0  0  0  0  0  0
   -3.2733    2.1918    0.0000 C   0  0  0  0  0  0  0  0  0  0  0  0
   -2.8497    3.6308    0.0000 C   0  0  0  0  0  0  0  0  0  0  0  0
   -1.3503    3.6725    0.0000 C   0  0  0  0  0  0  0  0  0  0  0  0
   -0.8472    2.2594    0.0000 N   0  0  0  0  0  0  0  0  0  0  0  0
    0.6304    2.5173    0.0000 C   0  0  0  0  0  0  0  0  0  0  0  0
    2.3588    3.5248    0.0000 C   0  0  0  0  0  0  0  0  0  0  0  0
    3.8349    3.2579    0.0000 C   0  0  0  0  0  0  0  0  0  0  0  0
    4.3417    1.8461    0.0000 N   0  0  0  0  0  0  0  0  0  0  0  0
    3.1104    0.9895    0.0000 C   0  0  0  0  0  0  0  0  0  0  0  0
    2.0587    2.0590    0.0000 N   0  0  0  0  0  0  0  0  0  0  0  0
    3.5446   -0.4463    0.0000 C   0  0  0  0  0  0  0  0  0  0  0  0
    5.0443   -0.4771    0.0000 C   0  0  0  0  0  0  0  0  0  0  0  0
    5.5369    0.9397    0.0000 N   0  0  0  0  0  0  0  0  0  0  0  0
    3.2618   -1.9194    0.0000 C   0  0  0  0  0  0  0  0  0  0  0  0
    4.6244   -2.5465    0.0000 O   0  0  0  0  0  0  0  0  0  0  0  0
    2.3268   -3.0924    0.0000 N   0  0  0  0  0  0  0  0  0  0  0  0
  2  1  1  6
  2  3  1  0
  3  4  1  0
  4  5  1  0
  5  6  2  0
  6  7  1  0
  7  8  2  0
  8  9  1  0
  9 10  2  0
  8 11  1  0
  6 12  1  0
 12 13  1  1
 13 14  1  0
 14 15  1  0
 15 16  1  0
 16 17  1  0
 17 18  1  0
 18 19  2  0
 19 20  1  0
 20 21  1  0
 21 22  1  0
 21 23  2  0
 23 24  1  0
 24 25  2  0
 23 26  1  0
 26 27  2  0
 26 28  1  0
 28  2  1  0
 10  5  1  0
 16 12  1  0
 22 17  2  0
 25 20  1  0
M  END
>  <BrandName>  (226) 


>  <Applicants>  (226) 
Bayer

>  <CHEMBL_ID>  (226) 
CHEMBL4297627

>  <Canonical_Smiles>  (226) 
C[C@@H]1CCc2c(cc(cn2)F)[C@H]3CCCN3c4ccn5c(n4)c(cn5)C(=O)N1

>  <Chirality>  (226) 
Single Stereoisomer

>  <First_Approval>  (226) 
nan

>  <Phase>  (226) 
2.0

>  <SC_Patent>  (226) 
nan

>  <Synonyms>  (226) 
LOXO-195 | SELITRECTINIB

>  <Withdrawn>  (226) 
{''}

>  <Indications>  (226) 
nan

>  <Type>  (226) 
nan

>  <targets_id>  (226) 
nan

>  <Inchi>  (226) 
InChI=1S/C20H21FN6O/c1-12-4-5-16-14(9-13(21)10-22-16)17-3-2-7-26(17)18-6-8-27-19(25-18)15(11-23-27)20(28)24-12/h6,8-12,17H,2-5,7H2,1H3,(H,24,28)/t12-,17-/m1/s1

>  <stdInchikey>  (226) 
OEBIHOVSAMBXIB-SJKOYZFVSA-N

>  <csid>  (226) 
64853862

>  <Links>  (226) 
|http://www.chemspider.com/Chemical-Structure.64853862.html|https://www.ebi.ac.uk/chembldb/compound/inspect/CHEMBL4297627|https://pubchem.ncbi.nlm.nih.gov/compound/129103609|https://go.drugbank.com/drugs/DB14896|https://www.guidetopharmacology.org/GRAC/LigandDisplayForward?10314|https://precision.fda.gov/uniisearch/srs/unii/0J45910S3X|https://www.bindingdb.org/bind/chemsearch/marvin/MolStructure.jsp?monomerid=50507492

>  <LinkName>  (226) 
|ChemSpider|ChEMBL|PubChem|DrugBank|Guide to Pharmacology|FDA SRS|BindingDB

>  <lig_pdb_ID>  (226) 


>  <pdb_IDs>  (226) 


>  <indicationDB>  (226) 


>  <uniprotId>  (226) 


>  <indicationG2P>  (226) 
None

>  <MW>  (226) 
380.2

>  <HBA>  (226) 
6

>  <HBD>  (226) 
1

>  <NRB>  (226) 
0

>  <TPSA>  (226) 
75.4

>  <LogP>  (226) 
2.7

>  <RoF>  (226) 
0

>  <Melting point>  (226) 
nan

>  <Targets>  (226) 
nan

>  <Kinase families>  (226) 


>  <FDA_approved>  (226) 


$$$$
Danusertib
     RDKit          2D

 35 39  0  0  0  0  0  0  0  0999 V2000
  -11.4022    2.1642    0.0000 C   0  0  0  0  0  0  0  0  0  0  0  0
   -9.9775    1.6948    0.0000 N   0  0  0  0  0  0  0  0  0  0  0  0
   -8.8587    2.6939    0.0000 C   0  0  0  0  0  0  0  0  0  0  0  0
   -7.4340    2.2246    0.0000 C   0  0  0  0  0  0  0  0  0  0  0  0
   -7.1282    0.7561    0.0000 N   0  0  0  0  0  0  0  0  0  0  0  0
   -8.2470   -0.2430    0.0000 C   0  0  0  0  0  0  0  0  0  0  0  0
   -9.6717    0.2263    0.0000 C   0  0  0  0  0  0  0  0  0  0  0  0
   -5.7035    0.2867    0.0000 C   0  0  0  0  0  0  0  0  0  0  0  0
   -5.3977   -1.1818    0.0000 C   0  0  0  0  0  0  0  0  0  0  0  0
   -3.9730   -1.6512    0.0000 C   0  0  0  0  0  0  0  0  0  0  0  0
   -2.8542   -0.6521    0.0000 C   0  0  0  0  0  0  0  0  0  0  0  0
   -3.1600    0.8164    0.0000 C   0  0  0  0  0  0  0  0  0  0  0  0
   -4.5847    1.2858    0.0000 C   0  0  0  0  0  0  0  0  0  0  0  0
   -1.4295   -1.1214    0.0000 C   0  0  0  0  0  0  0  0  0  0  0  0
   -0.3107   -0.1223    0.0000 O   0  0  0  0  0  0  0  0  0  0  0  0
   -1.1237   -2.5899    0.0000 N   0  0  0  0  0  0  0  0  0  0  0  0
    0.3010   -3.0593    0.0000 C   0  0  0  0  0  0  0  0  0  0  0  0
    1.5181   -2.1826    0.0000 C   0  0  0  0  0  0  0  0  0  0  0  0
    2.7280   -3.0693    0.0000 C   0  0  0  0  0  0  0  0  0  0  0  0
    2.2587   -4.4939    0.0000 N   0  0  0  0  0  0  0  0  0  0  0  0
    0.7587   -4.4878    0.0000 N   0  0  0  0  0  0  0  0  0  0  0  0
    3.9452   -2.1926    0.0000 C   0  0  0  0  0  0  0  0  0  0  0  0
    3.4875   -0.7641    0.0000 N   0  0  0  0  0  0  0  0  0  0  0  0
    1.9875   -0.7580    0.0000 C   0  0  0  0  0  0  0  0  0  0  0  0
    4.3742    0.4458    0.0000 C   0  0  0  0  0  0  0  0  0  0  0  0
    3.7697    1.8186    0.0000 O   0  0  0  0  0  0  0  0  0  0  0  0
    5.8653    0.2829    0.0000 C   0  0  0  0  0  0  0  0  0  0  0  0
    6.7519    1.4928    0.0000 C   0  0  0  0  0  0  0  0  0  0  0  0
    8.2431    1.3298    0.0000 C   0  0  0  0  0  0  0  0  0  0  0  0
    9.1297    2.5397    0.0000 C   0  0  0  0  0  0  0  0  0  0  0  0
    8.5253    3.9126    0.0000 C   0  0  0  0  0  0  0  0  0  0  0  0
    7.0341    4.0755    0.0000 C   0  0  0  0  0  0  0  0  0  0  0  0
    6.1475    2.8656    0.0000 C   0  0  0  0  0  0  0  0  0  0  0  0
    6.4698   -1.0899    0.0000 O   0  0  0  0  0  0  0  0  0  0  0  0
    7.9609   -1.2529    0.0000 C   0  0  0  0  0  0  0  0  0  0  0  0
  1  2  1  0
  2  3  1  0
  3  4  1  0
  4  5  1  0
  5  6  1  0
  6  7  1  0
  5  8  1  0
  8  9  2  0
  9 10  1  0
 10 11  2  0
 11 12  1  0
 12 13  2  0
 11 14  1  0
 14 15  2  0
 14 16  1  0
 16 17  1  0
 17 18  1  0
 18 19  2  0
 19 20  1  0
 20 21  1  0
 19 22  1  0
 22 23  1  0
 23 24  1  0
 23 25  1  0
 25 26  2  0
 25 27  1  0
 27 28  1  0
 28 29  2  0
 29 30  1  0
 30 31  2  0
 31 32  1  0
 32 33  2  0
 27 34  1  1
 34 35  1  0
  7  2  1  0
 13  8  1  0
 21 17  2  0
 24 18  1  0
 33 28  1  0
M  END
>  <BrandName>  (227) 


>  <Applicants>  (227) 
Nerviano Medical Sciences

>  <CHEMBL_ID>  (227) 
CHEMBL402548

>  <Canonical_Smiles>  (227) 
CN1CCN(CC1)c2ccc(cc2)C(=O)Nc3c4c([nH]n3)CN(C4)C(=O)[C@@H](c5ccccc5)OC

>  <Chirality>  (227) 
Single Stereoisomer

>  <First_Approval>  (227) 
nan

>  <Phase>  (227) 
2.0

>  <SC_Patent>  (227) 
nan

>  <Synonyms>  (227) 
DANUSERTIB | PHA-739358

>  <Withdrawn>  (227) 
nan

>  <Indications>  (227) 
nan

>  <Type>  (227) 
1

>  <targets_id>  (227) 
O14965|Q96GD4|Q9UQB9

>  <Inchi>  (227) 
InChI=1S/C26H30N6O3/c1-30-12-14-31(15-13-30)20-10-8-19(9-11-20)25(33)27-24-21-16-32(17-22(21)28-29-24)26(34)23(35-2)18-6-4-3-5-7-18/h3-11,23H,12-17H2,1-2H3,(H2,27,28,29,33)/t23-/m1/s1

>  <stdInchikey>  (227) 
XKFTZKGMDDZMJI-HSZRJFAPSA-N

>  <csid>  (227) 
9617754

>  <Links>  (227) 
|http://www.chemspider.com/Chemical-Structure.9617754.html|https://www.ebi.ac.uk/chembldb/compound/inspect/CHEMBL402548|https://pubchem.ncbi.nlm.nih.gov/compound/11442891|https://go.drugbank.com/drugs/DB11778|https://www.rcsb.org/ligand/627|https://www.ebi.ac.uk/pdbe-srv/pdbechem/chemicalCompound/show/627|https://www.guidetopharmacology.org/GRAC/LigandDisplayForward?7937|https://zinc15.docking.org/substances/ZINC000006718723|https://precision.fda.gov/uniisearch/srs/unii/M3X659D0FY|https://www.bindingdb.org/bind/chemsearch/marvin/MolStructure.jsp?monomerid=12985

>  <LinkName>  (227) 
|ChemSpider|ChEMBL|PubChem|DrugBank|RCSB|PDBe|Guide to Pharmacology|ZINC|FDA SRS|BindingDB

>  <lig_pdb_ID>  (227) 
627

>  <pdb_IDs>  (227) 
2j50 2v7a 4qo9 5i9z 8sso 8ssp

>  <indicationDB>  (227) 


>  <uniprotId>  (227) 


>  <indicationG2P>  (227) 
None

>  <MW>  (227) 
474.2

>  <HBA>  (227) 
6

>  <HBD>  (227) 
2

>  <NRB>  (227) 
6

>  <TPSA>  (227) 
93.8

>  <LogP>  (227) 
2.6

>  <RoF>  (227) 
0

>  <Melting point>  (227) 
nan

>  <Targets>  (227) 
AURKA; AURKB; AURKC

>  <Kinase families>  (227) 
Other

>  <FDA_approved>  (227) 


$$$$
Tozasertib
     RDKit          2D

 33 37  0  0  0  0  0  0  0  0999 V2000
   -9.2158    2.5379    0.0000 C   0  0  0  0  0  0  0  0  0  0  0  0
   -7.8059    2.0257    0.0000 C   0  0  0  0  0  0  0  0  0  0  0  0
   -7.3916    0.5841    0.0000 C   0  0  0  0  0  0  0  0  0  0  0  0
   -5.8925    0.5326    0.0000 C   0  0  0  0  0  0  0  0  0  0  0  0
   -5.3803    1.9425    0.0000 N   0  0  0  0  0  0  0  0  0  0  0  0
   -6.5629    2.8652    0.0000 N   0  0  0  0  0  0  0  0  0  0  0  0
   -5.0530   -0.7104    0.0000 N   0  0  0  0  0  0  0  0  0  0  0  0
   -3.5567   -0.6049    0.0000 C   0  0  0  0  0  0  0  0  0  0  0  0
   -2.7172   -1.8480    0.0000 C   0  0  0  0  0  0  0  0  0  0  0  0
   -1.2209   -1.7425    0.0000 C   0  0  0  0  0  0  0  0  0  0  0  0
   -0.5641   -0.3939    0.0000 N   0  0  0  0  0  0  0  0  0  0  0  0
   -1.4036    0.8492    0.0000 C   0  0  0  0  0  0  0  0  0  0  0  0
   -2.8999    0.7437    0.0000 N   0  0  0  0  0  0  0  0  0  0  0  0
   -0.7469    2.1978    0.0000 S   0  0  0  0  0  0  0  0  0  0  0  0
    0.7494    2.3033    0.0000 C   0  0  0  0  0  0  0  0  0  0  0  0
    1.5889    1.0602    0.0000 C   0  0  0  0  0  0  0  0  0  0  0  0
    3.0852    1.1657    0.0000 C   0  0  0  0  0  0  0  0  0  0  0  0
    3.7420    2.5143    0.0000 C   0  0  0  0  0  0  0  0  0  0  0  0
    2.9024    3.7574    0.0000 C   0  0  0  0  0  0  0  0  0  0  0  0
    1.4062    3.6519    0.0000 C   0  0  0  0  0  0  0  0  0  0  0  0
    5.2382    2.6198    0.0000 N   0  0  0  0  0  0  0  0  0  0  0  0
    6.0778    1.3768    0.0000 C   0  0  0  0  0  0  0  0  0  0  0  0
    5.4210    0.0282    0.0000 O   0  0  0  0  0  0  0  0  0  0  0  0
    7.5741    1.4823    0.0000 C   0  0  0  0  0  0  0  0  0  0  0  0
    8.8171    2.3218    0.0000 C   0  0  0  0  0  0  0  0  0  0  0  0
    8.9226    0.8255    0.0000 C   0  0  0  0  0  0  0  0  0  0  0  0
   -0.3813   -2.9855    0.0000 N   0  0  0  0  0  0  0  0  0  0  0  0
   -1.0381   -4.3341    0.0000 C   0  0  0  0  0  0  0  0  0  0  0  0
   -0.1986   -5.5772    0.0000 C   0  0  0  0  0  0  0  0  0  0  0  0
    1.2977   -5.4716    0.0000 N   0  0  0  0  0  0  0  0  0  0  0  0
    1.9545   -4.1231    0.0000 C   0  0  0  0  0  0  0  0  0  0  0  0
    1.1149   -2.8800    0.0000 C   0  0  0  0  0  0  0  0  0  0  0  0
    2.1372   -6.7147    0.0000 C   0  0  0  0  0  0  0  0  0  0  0  0
  1  2  1  0
  2  3  2  0
  3  4  1  0
  4  5  2  0
  5  6  1  0
  4  7  1  0
  7  8  1  0
  8  9  2  0
  9 10  1  0
 10 11  2  0
 11 12  1  0
 12 13  2  0
 12 14  1  0
 14 15  1  0
 15 16  2  0
 16 17  1  0
 17 18  2  0
 18 19  1  0
 19 20  2  0
 18 21  1  0
 21 22  1  0
 22 23  2  0
 22 24  1  0
 24 25  1  0
 25 26  1  0
 10 27  1  0
 27 28  1  0
 28 29  1  0
 29 30  1  0
 30 31  1  0
 31 32  1  0
 30 33  1  0
  6  2  1  0
 13  8  1  0
 20 15  1  0
 26 24  1  0
 32 27  1  0
M  END
>  <BrandName>  (228) 


>  <Applicants>  (228) 
Merck

>  <CHEMBL_ID>  (228) 
CHEMBL572878

>  <Canonical_Smiles>  (228) 
Cc1cc(n[nH]1)Nc2cc(nc(n2)Sc3ccc(cc3)NC(=O)C4CC4)N5CCN(CC5)C

>  <Chirality>  (228) 
Achiral Molecule

>  <First_Approval>  (228) 
nan

>  <Phase>  (228) 
2.0

>  <SC_Patent>  (228) 
nan

>  <Synonyms>  (228) 
MK-045 | MK-0457 | TOZASERTIB | VX-68 | VX-680

>  <Withdrawn>  (228) 
nan

>  <Indications>  (228) 
nan

>  <Type>  (228) 
1

>  <targets_id>  (228) 
O14965|Q96GD4|Q9UQB9

>  <Inchi>  (228) 
InChI=1S/C23H28N8OS/c1-15-13-20(29-28-15)25-19-14-21(31-11-9-30(2)10-12-31)27-23(26-19)33-18-7-5-17(6-8-18)24-22(32)16-3-4-16/h5-8,13-14,16H,3-4,9-12H2,1-2H3,(H,24,32)(H2,25,26,27,28,29)

>  <stdInchikey>  (228) 
GCIKSSRWRFVXBI-UHFFFAOYSA-N

>  <csid>  (228) 
4591897

>  <Links>  (228) 
|http://www.chemspider.com/Chemical-Structure.4591897.html|https://www.ebi.ac.uk/chembldb/compound/inspect/CHEMBL572878|https://pubchem.ncbi.nlm.nih.gov/compound/5494449|https://www.rcsb.org/ligand/VX6|https://www.ebi.ac.uk/pdbe-srv/pdbechem/chemicalCompound/show/VX6|https://www.guidetopharmacology.org/GRAC/LigandDisplayForward?5718|https://zinc15.docking.org/substances/ZINC000003820040|https://precision.fda.gov/uniisearch/srs/unii/234335M86K|https://www.bindingdb.org/bind/chemsearch/marvin/MolStructure.jsp?monomerid=13534

>  <LinkName>  (228) 
|ChemSpider|ChEMBL|PubChem|RCSB|PDBe|Guide to Pharmacology|ZINC|FDA SRS|BindingDB

>  <lig_pdb_ID>  (228) 
VX6

>  <pdb_IDs>  (228) 
2f4j 2xyn 3amb 3e5a 4af3 4b8m 4jbq 4zog 5wnm 6brj 6gr9

>  <indicationDB>  (228) 


>  <uniprotId>  (228) 


>  <indicationG2P>  (228) 
None

>  <MW>  (228) 
464.2

>  <HBA>  (228) 
8

>  <HBD>  (228) 
3

>  <NRB>  (228) 
7

>  <TPSA>  (228) 
102.1

>  <LogP>  (228) 
3.5

>  <RoF>  (228) 
0

>  <Melting point>  (228) 
nan

>  <Targets>  (228) 
AURKA; AURKB; AURKC

>  <Kinase families>  (228) 
Other

>  <FDA_approved>  (228) 


$$$$
Elenestinib
     RDKit          2D

 39 44  0  0  0  0  0  0  0  0999 V2000
   -7.8232   -1.6734    0.0000 C   0  0  0  0  0  0  0  0  0  0  0  0
   -7.3997   -0.2345    0.0000 C   0  0  0  0  0  0  0  0  0  0  0  0
   -8.8386    0.1891    0.0000 N   0  0  0  0  0  0  0  0  0  0  0  0
   -6.9761    1.2045    0.0000 C   0  0  0  0  0  0  0  0  0  0  0  0
   -5.5181    1.5571    0.0000 C   0  0  0  0  0  0  0  0  0  0  0  0
   -5.0946    2.9961    0.0000 C   0  0  0  0  0  0  0  0  0  0  0  0
   -6.1290    4.0824    0.0000 C   0  0  0  0  0  0  0  0  0  0  0  0
   -5.7054    5.5213    0.0000 F   0  0  0  0  0  0  0  0  0  0  0  0
   -7.5869    3.7297    0.0000 C   0  0  0  0  0  0  0  0  0  0  0  0
   -8.0105    2.2908    0.0000 C   0  0  0  0  0  0  0  0  0  0  0  0
   -5.9607   -0.6580    0.0000 C   0  0  0  0  0  0  0  0  0  0  0  0
   -5.6080   -2.1160    0.0000 C   0  0  0  0  0  0  0  0  0  0  0  0
   -4.1691   -2.5396    0.0000 N   0  0  0  0  0  0  0  0  0  0  0  0
   -3.0828   -1.5052    0.0000 C   0  0  0  0  0  0  0  0  0  0  0  0
   -1.6438   -1.9287    0.0000 N   0  0  0  0  0  0  0  0  0  0  0  0
   -1.2912   -3.3867    0.0000 C   0  0  0  0  0  0  0  0  0  0  0  0
    0.1478   -3.8102    0.0000 C   0  0  0  0  0  0  0  0  0  0  0  0
    1.2341   -2.7759    0.0000 N   0  0  0  0  0  0  0  0  0  0  0  0
    2.6730   -3.1994    0.0000 C   0  0  0  0  0  0  0  0  0  0  0  0
    3.0257   -4.6574    0.0000 N   0  0  0  0  0  0  0  0  0  0  0  0
    4.4646   -5.0809    0.0000 C   0  0  0  0  0  0  0  0  0  0  0  0
    5.5509   -4.0465    0.0000 N   0  0  0  0  0  0  0  0  0  0  0  0
    5.1983   -2.5886    0.0000 N   0  0  0  0  0  0  0  0  0  0  0  0
    6.0458   -1.3509    0.0000 C   0  0  0  0  0  0  0  0  0  0  0  0
    5.1306   -0.1625    0.0000 C   0  0  0  0  0  0  0  0  0  0  0  0
    5.5542    1.2765    0.0000 C   0  0  0  0  0  0  0  0  0  0  0  0
    4.6390    2.4649    0.0000 C   0  0  0  0  0  0  0  0  0  0  0  0
    5.4865    3.7026    0.0000 N   0  0  0  0  0  0  0  0  0  0  0  0
    6.9254    3.2790    0.0000 N   0  0  0  0  0  0  0  0  0  0  0  0
    8.1139    4.1942    0.0000 C   0  0  0  0  0  0  0  0  0  0  0  0
    9.5007    3.6225    0.0000 C   0  0  0  0  0  0  0  0  0  0  0  0
   10.6892    4.5377    0.0000 O   0  0  0  0  0  0  0  0  0  0  0  0
    6.9673    1.7796    0.0000 C   0  0  0  0  0  0  0  0  0  0  0  0
    3.7175   -0.6656    0.0000 C   0  0  0  0  0  0  0  0  0  0  0  0
    3.7593   -2.1650    0.0000 C   0  0  0  0  0  0  0  0  0  0  0  0
    0.8814   -1.3179    0.0000 C   0  0  0  0  0  0  0  0  0  0  0  0
   -0.5575   -0.8943    0.0000 C   0  0  0  0  0  0  0  0  0  0  0  0
   -3.4355   -0.0472    0.0000 N   0  0  0  0  0  0  0  0  0  0  0  0
   -4.8744    0.3764    0.0000 C   0  0  0  0  0  0  0  0  0  0  0  0
  2  1  1  6
  2  3  1  0
  2  4  1  0
  4  5  2  0
  5  6  1  0
  6  7  2  0
  7  8  1  0
  7  9  1  0
  9 10  2  0
  2 11  1  0
 11 12  2  0
 12 13  1  0
 13 14  2  0
 14 15  1  0
 15 16  1  0
 16 17  1  0
 17 18  1  0
 18 19  1  0
 19 20  2  0
 20 21  1  0
 21 22  2  0
 22 23  1  0
 23 24  1  0
 24 25  2  0
 25 26  1  0
 26 27  1  0
 27 28  2  0
 28 29  1  0
 29 30  1  0
 30 31  1  0
 31 32  1  0
 29 33  1  0
 25 34  1  0
 34 35  2  0
 18 36  1  0
 36 37  1  0
 14 38  1  0
 38 39  2  0
 10  4  1  0
 39 11  1  0
 37 15  1  0
 35 19  1  0
 35 23  1  0
 33 26  2  0
M  END
>  <BrandName>  (229) 


>  <Applicants>  (229) 
('Blueprint Medicines',)

>  <CHEMBL_ID>  (229) 
CHEMBL5314552

>  <Canonical_Smiles>  (229) 
C[C@](N)(c1ccc(F)cc1)c1cnc(N2CCN(c3ncnn4cc(-c5cnn(CCO)c5)cc34)CC2)nc1

>  <Chirality>  (229) 
Unknown

>  <First_Approval>  (229) 
nan

>  <Phase>  (229) 
2.0

>  <SC_Patent>  (229) 
nan

>  <Synonyms>  (229) 
BLU-263 | ELENESTINIB

>  <Withdrawn>  (229) 
nan

>  <Indications>  (229) 
nan

>  <Type>  (229) 
nan

>  <targets_id>  (229) 
nan

>  <Inchi>  (229) 
InChI=1S/C27H29FN10O/c1-27(29,21-2-4-23(28)5-3-21)22-14-30-26(31-15-22)36-8-6-35(7-9-36)25-24-12-19(17-38(24)34-18-32-25)20-13-33-37(16-20)10-11-39/h2-5,12-18,39H,6-11,29H2,1H3/t27-/m0/s1

>  <stdInchikey>  (229) 
IPMARPMXSFFZFG-MHZLTWQESA-N

>  <csid>  (229) 
123963172

>  <Links>  (229) 
|http://www.chemspider.com/Chemical-Structure.123963172.html|https://www.ebi.ac.uk/chembldb/compound/inspect/CHEMBL5314552|https://pubchem.ncbi.nlm.nih.gov/compound/155190269|https://go.drugbank.com/drugs/DB18489

>  <LinkName>  (229) 
|ChemSpider|ChEMBL|PubChem|DrugBank

>  <lig_pdb_ID>  (229) 


>  <pdb_IDs>  (229) 


>  <indicationDB>  (229) 


>  <uniprotId>  (229) 


>  <indicationG2P>  (229) 


>  <MW>  (229) 
528.3

>  <HBA>  (229) 
11

>  <HBD>  (229) 
2

>  <NRB>  (229) 
7

>  <TPSA>  (229) 
126.5

>  <LogP>  (229) 
2.1

>  <RoF>  (229) 
2

>  <Melting point>  (229) 
nan

>  <Targets>  (229) 
nan

>  <Kinase families>  (229) 


>  <FDA_approved>  (229) 


$$$$
Fidrisertib
     RDKit          2D

 41 46  0  0  0  0  0  0  0  0999 V2000
    3.3944    4.7025    0.0000 C   0  0  0  0  0  0  0  0  0  0  0  0
    4.5270    3.7191    0.0000 C   0  0  0  0  0  0  0  0  0  0  0  0
    4.2416    2.2465    0.0000 O   0  0  0  0  0  0  0  0  0  0  0  0
    5.3743    1.2630    0.0000 C   0  0  0  0  0  0  0  0  0  0  0  0
    4.2091    0.3184    0.0000 C   0  0  0  0  0  0  0  0  0  0  0  0
    2.8084    0.8551    0.0000 C   0  0  0  0  0  0  0  0  0  0  0  0
    1.6432   -0.0895    0.0000 C   0  0  0  0  0  0  0  0  0  0  0  0
    1.8787   -1.5709    0.0000 C   0  0  0  0  0  0  0  0  0  0  0  0
    0.7136   -2.5156    0.0000 C   0  0  0  0  0  0  0  0  0  0  0  0
   -0.7356   -2.1282    0.0000 C   0  0  0  0  0  0  0  0  0  0  0  0
   -1.5518   -3.3866    0.0000 C   0  0  0  0  0  0  0  0  0  0  0  0
   -3.0332   -3.6221    0.0000 C   0  0  0  0  0  0  0  0  0  0  0  0
   -3.9778   -2.4569    0.0000 N   0  0  0  0  0  0  0  0  0  0  0  0
   -3.4411   -1.0563    0.0000 C   0  0  0  0  0  0  0  0  0  0  0  0
   -4.3857    0.1089    0.0000 C   0  0  0  0  0  0  0  0  0  0  0  0
   -5.8671   -0.1266    0.0000 N   0  0  0  0  0  0  0  0  0  0  0  0
   -6.8118    1.0386    0.0000 C   0  0  0  0  0  0  0  0  0  0  0  0
   -8.2932    0.8031    0.0000 O   0  0  0  0  0  0  0  0  0  0  0  0
   -6.2750    2.4393    0.0000 O   0  0  0  0  0  0  0  0  0  0  0  0
   -7.2197    3.6044    0.0000 C   0  0  0  0  0  0  0  0  0  0  0  0
   -8.7176    3.5251    0.0000 C   0  0  0  0  0  0  0  0  0  0  0  0
   -9.2559    4.9252    0.0000 C   0  0  0  0  0  0  0  0  0  0  0  0
   -8.0907    5.8698    0.0000 O   0  0  0  0  0  0  0  0  0  0  0  0
   -6.8323    5.0536    0.0000 C   0  0  0  0  0  0  0  0  0  0  0  0
   -6.4039   -1.5273    0.0000 C   0  0  0  0  0  0  0  0  0  0  0  0
   -5.4592   -2.6924    0.0000 C   0  0  0  0  0  0  0  0  0  0  0  0
   -3.5699   -5.0228    0.0000 C   0  0  0  0  0  0  0  0  0  0  0  0
   -2.6253   -6.1880    0.0000 C   0  0  0  0  0  0  0  0  0  0  0  0
   -1.1439   -5.9525    0.0000 N   0  0  0  0  0  0  0  0  0  0  0  0
   -0.6072   -4.5518    0.0000 N   0  0  0  0  0  0  0  0  0  0  0  0
    0.7929   -4.0135    0.0000 C   0  0  0  0  0  0  0  0  0  0  0  0
    3.2794   -2.1077    0.0000 N   0  0  0  0  0  0  0  0  0  0  0  0
    4.4446   -1.1630    0.0000 C   0  0  0  0  0  0  0  0  0  0  0  0
    6.1022   -0.0485    0.0000 C   0  0  0  0  0  0  0  0  0  0  0  0
    7.6020   -0.0738    0.0000 C   0  0  0  0  0  0  0  0  0  0  0  0
    8.3738    1.2124    0.0000 N   0  0  0  0  0  0  0  0  0  0  0  0
    9.8736    1.1871    0.0000 C   0  0  0  0  0  0  0  0  0  0  0  0
   10.6016   -0.1244    0.0000 C   0  0  0  0  0  0  0  0  0  0  0  0
   10.6455    2.4733    0.0000 C   0  0  0  0  0  0  0  0  0  0  0  0
    7.6459    2.5239    0.0000 C   0  0  0  0  0  0  0  0  0  0  0  0
    6.1461    2.5492    0.0000 C   0  0  0  0  0  0  0  0  0  0  0  0
  1  2  1  0
  2  3  1  0
  3  4  1  0
  4  5  1  0
  5  6  2  0
  6  7  1  0
  7  8  2  0
  8  9  1  0
  9 10  1  0
 10 11  2  0
 11 12  1  0
 12 13  1  0
 13 14  1  0
 14 15  1  0
 15 16  1  0
 16 17  1  0
 17 18  2  0
 17 19  1  0
 20 19  1  6
 20 21  1  0
 21 22  1  0
 22 23  1  0
 23 24  1  0
 16 25  1  0
 25 26  1  0
 12 27  2  0
 27 28  1  0
 28 29  2  0
 29 30  1  0
 30 31  1  0
  8 32  1  0
 32 33  2  0
  4 34  1  0
 34 35  1  0
 35 36  1  0
 36 37  1  0
 37 38  1  0
 37 39  1  0
 36 40  1  0
 40 41  1  0
 41  4  1  0
 33  5  1  0
 31  9  2  0
 30 11  1  0
 26 13  1  0
 24 20  1  0
M  END
>  <BrandName>  (230) 


>  <Applicants>  (230) 
Blueprint Medicines

>  <CHEMBL_ID>  (230) 
CHEMBL4802133

>  <Canonical_Smiles>  (230) 
CCOC1(c2ccc(-c3cc4c(N5CCN(C(=O)O[C@@H]6CCOC6)CC5)ccnn4c3)nc2)CCN(C(C)C)CC1

>  <Chirality>  (230) 
Single Stereoisomer

>  <First_Approval>  (230) 
nan

>  <Phase>  (230) 
2.0

>  <SC_Patent>  (230) 
nan

>  <Synonyms>  (230) 
BLU-782 | FIDRISERTIB | IPN-60130 | IPN60130

>  <Withdrawn>  (230) 
nan

>  <Indications>  (230) 
nan

>  <Type>  (230) 
nan

>  <targets_id>  (230) 
nan

>  <Inchi>  (230) 
InChI=1S/C31H42N6O4/c1-4-40-31(9-12-34(13-10-31)23(2)3)25-5-6-27(32-20-25)24-19-29-28(7-11-33-37(29)21-24)35-14-16-36(17-15-35)30(38)41-26-8-18-39-22-26/h5-7,11,19-21,23,26H,4,8-10,12-18,22H2,1-3H3/t26-/m1/s1

>  <stdInchikey>  (230) 
SWVYYNLRVIYURK-AREMUKBSSA-N

>  <csid>  (230) 
72380177

>  <Links>  (230) 
|http://www.chemspider.com/Chemical-Structure.72380177.html|https://www.ebi.ac.uk/chembldb/compound/inspect/CHEMBL4802133|https://pubchem.ncbi.nlm.nih.gov/compound/132026427|https://go.drugbank.com/drugs/DB18064|https://precision.fda.gov/uniisearch/srs/unii/KF4ZI0CJ7M

>  <LinkName>  (230) 
|ChemSpider|ChEMBL|PubChem|DrugBank|FDA SRS

>  <lig_pdb_ID>  (230) 


>  <pdb_IDs>  (230) 


>  <indicationDB>  (230) 


>  <uniprotId>  (230) 


>  <indicationG2P>  (230) 


>  <MW>  (230) 
562.3

>  <HBA>  (230) 
9

>  <HBD>  (230) 
0

>  <NRB>  (230) 
7

>  <TPSA>  (230) 
84.7

>  <LogP>  (230) 
4.2

>  <RoF>  (230) 
1

>  <Melting point>  (230) 
nan

>  <Targets>  (230) 
nan

>  <Kinase families>  (230) 


>  <FDA_approved>  (230) 


$$$$
Tibremciclib
     RDKit          2D

 38 43  0  0  0  0  0  0  0  0999 V2000
   -2.7592    5.8625    0.0000 C   0  0  0  0  0  0  0  0  0  0  0  0
   -4.2268    5.5526    0.0000 C   0  0  0  0  0  0  0  0  0  0  0  0
   -4.6922    4.1266    0.0000 N   0  0  0  0  0  0  0  0  0  0  0  0
   -3.6900    3.0106    0.0000 C   0  0  0  0  0  0  0  0  0  0  0  0
   -4.1553    1.5846    0.0000 C   0  0  0  0  0  0  0  0  0  0  0  0
   -5.6230    1.2747    0.0000 N   0  0  0  0  0  0  0  0  0  0  0  0
   -6.0884   -0.1513    0.0000 C   0  0  0  0  0  0  0  0  0  0  0  0
   -5.0861   -1.2673    0.0000 C   0  0  0  0  0  0  0  0  0  0  0  0
   -5.5515   -2.6933    0.0000 C   0  0  0  0  0  0  0  0  0  0  0  0
   -4.5493   -3.8093    0.0000 C   0  0  0  0  0  0  0  0  0  0  0  0
   -3.0816   -3.4994    0.0000 C   0  0  0  0  0  0  0  0  0  0  0  0
   -2.0794   -4.6154    0.0000 N   0  0  0  0  0  0  0  0  0  0  0  0
   -0.6118   -4.3055    0.0000 C   0  0  0  0  0  0  0  0  0  0  0  0
    0.3905   -5.4215    0.0000 N   0  0  0  0  0  0  0  0  0  0  0  0
    1.8581   -5.1116    0.0000 C   0  0  0  0  0  0  0  0  0  0  0  0
    2.3235   -3.6856    0.0000 C   0  0  0  0  0  0  0  0  0  0  0  0
    3.7911   -3.3756    0.0000 F   0  0  0  0  0  0  0  0  0  0  0  0
    1.3212   -2.5695    0.0000 C   0  0  0  0  0  0  0  0  0  0  0  0
    1.7866   -1.1436    0.0000 C   0  0  0  0  0  0  0  0  0  0  0  0
    0.7844   -0.0275    0.0000 C   0  0  0  0  0  0  0  0  0  0  0  0
    1.2498    1.3984    0.0000 C   0  0  0  0  0  0  0  0  0  0  0  0
    0.2475    2.5145    0.0000 F   0  0  0  0  0  0  0  0  0  0  0  0
    2.7174    1.7084    0.0000 C   0  0  0  0  0  0  0  0  0  0  0  0
    3.4691    3.0064    0.0000 N   0  0  0  0  0  0  0  0  0  0  0  0
    4.9359    2.6927    0.0000 C   0  0  0  0  0  0  0  0  0  0  0  0
    5.0908    1.2007    0.0000 N   0  0  0  0  0  0  0  0  0  0  0  0
    3.7196    0.5924    0.0000 C   0  0  0  0  0  0  0  0  0  0  0  0
    3.2543   -0.8336    0.0000 C   0  0  0  0  0  0  0  0  0  0  0  0
    6.4603    0.5888    0.0000 C   0  0  0  0  0  0  0  0  0  0  0  0
    6.6151   -0.9032    0.0000 C   0  0  0  0  0  0  0  0  0  0  0  0
    7.6750    1.4689    0.0000 C   0  0  0  0  0  0  0  0  0  0  0  0
    7.5201    2.9609    0.0000 C   0  0  0  0  0  0  0  0  0  0  0  0
    6.1506    3.5728    0.0000 C   0  0  0  0  0  0  0  0  0  0  0  0
   -0.1464   -2.8795    0.0000 N   0  0  0  0  0  0  0  0  0  0  0  0
   -2.6163   -2.0734    0.0000 N   0  0  0  0  0  0  0  0  0  0  0  0
   -3.6185   -0.9574    0.0000 C   0  0  0  0  0  0  0  0  0  0  0  0
   -6.6252    2.3907    0.0000 C   0  0  0  0  0  0  0  0  0  0  0  0
   -6.1598    3.8167    0.0000 C   0  0  0  0  0  0  0  0  0  0  0  0
  1  2  1  0
  2  3  1  0
  3  4  1  0
  4  5  1  0
  5  6  1  0
  6  7  1  0
  7  8  1  0
  8  9  2  0
  9 10  1  0
 10 11  2  0
 11 12  1  0
 12 13  1  0
 13 14  2  0
 14 15  1  0
 15 16  2  0
 16 17  1  0
 16 18  1  0
 18 19  1  0
 19 20  2  0
 20 21  1  0
 21 22  1  0
 21 23  2  0
 23 24  1  0
 24 25  2  0
 25 26  1  0
 26 27  1  0
 27 28  2  0
 26 29  1  0
 29 30  1  1
 29 31  1  0
 31 32  1  0
 32 33  1  0
 18 34  2  0
 11 35  1  0
 35 36  2  0
  6 37  1  0
 37 38  1  0
 38  3  1  0
 36  8  1  0
 34 13  1  0
 28 19  1  0
 27 23  1  0
 33 25  1  0
M  END
>  <BrandName>  (231) 


>  <Applicants>  (231) 
('',)

>  <CHEMBL_ID>  (231) 
CHEMBL5314545

>  <Canonical_Smiles>  (231) 
CCN1CCN(Cc2ccc(Nc3ncc(F)c(-c4cc(F)c5nc6n(c5c4)[C@H](C)CCC6)n3)nc2)CC1

>  <Chirality>  (231) 
Unknown

>  <First_Approval>  (231) 
nan

>  <Phase>  (231) 
2.0

>  <SC_Patent>  (231) 
nan

>  <Synonyms>  (231) 
TIBREMCICLIB

>  <Withdrawn>  (231) 
nan

>  <Indications>  (231) 
nan

>  <Type>  (231) 
nan

>  <targets_id>  (231) 
nan

>  <Inchi>  (231) 
InChI=1S/C28H32F2N8/c1-3-36-9-11-37(12-10-36)17-19-7-8-24(31-15-19)33-28-32-16-22(30)26(35-28)20-13-21(29)27-23(14-20)38-18(2)5-4-6-25(38)34-27/h7-8,13-16,18H,3-6,9-12,17H2,1-2H3,(H,31,32,33,35)/t18-/m1/s1

>  <stdInchikey>  (231) 
XOJPAVACYRFOBK-GOSISDBHSA-N

>  <csid>  (231) 
nan

>  <Links>  (231) 
|http://www.chemspider.com/Chemical-Structure.nan.html|https://www.ebi.ac.uk/chembldb/compound/inspect/CHEMBL5314545|https://pubchem.ncbi.nlm.nih.gov/compound/146277756

>  <LinkName>  (231) 
|ChemSpider|ChEMBL|PubChem

>  <lig_pdb_ID>  (231) 


>  <pdb_IDs>  (231) 


>  <indicationDB>  (231) 


>  <uniprotId>  (231) 


>  <indicationG2P>  (231) 


>  <MW>  (231) 
518.3

>  <HBA>  (231) 
8

>  <HBD>  (231) 
1

>  <NRB>  (231) 
6

>  <TPSA>  (231) 
75.0

>  <LogP>  (231) 
4.9

>  <RoF>  (231) 
1

>  <Melting point>  (231) 
nan

>  <Targets>  (231) 
nan

>  <Kinase families>  (231) 


>  <FDA_approved>  (231) 


$$$$
Vecabrutinib
     RDKit          2D

 36 39  0  0  0  0  0  0  0  0999 V2000
   -4.4899    0.3104    0.0000 C   0  0  0  0  0  0  0  0  0  0  0  0
   -5.9844    0.4378    0.0000 C   0  0  0  0  0  0  0  0  0  0  0  0
   -6.6214    1.7959    0.0000 C   0  0  0  0  0  0  0  0  0  0  0  0
   -5.7637    3.0265    0.0000 C   0  0  0  0  0  0  0  0  0  0  0  0
   -4.2691    2.8991    0.0000 C   0  0  0  0  0  0  0  0  0  0  0  0
   -3.6322    1.5410    0.0000 C   0  0  0  0  0  0  0  0  0  0  0  0
   -2.1376    1.4136    0.0000 N   0  0  0  0  0  0  0  0  0  0  0  0
   -1.5007    0.0555    0.0000 C   0  0  0  0  0  0  0  0  0  0  0  0
   -2.3584   -1.1751    0.0000 C   0  0  0  0  0  0  0  0  0  0  0  0
   -1.7214   -2.5332    0.0000 C   0  0  0  0  0  0  0  0  0  0  0  0
   -0.2268   -2.6606    0.0000 C   0  0  0  0  0  0  0  0  0  0  0  0
    0.6308   -1.4300    0.0000 N   0  0  0  0  0  0  0  0  0  0  0  0
   -0.0061   -0.0719    0.0000 C   0  0  0  0  0  0  0  0  0  0  0  0
    0.8515    1.1587    0.0000 O   0  0  0  0  0  0  0  0  0  0  0  0
    2.1254   -1.5574    0.0000 C   0  0  0  0  0  0  0  0  0  0  0  0
    2.9830   -0.3268    0.0000 C   0  0  0  0  0  0  0  0  0  0  0  0
    4.4776   -0.4542    0.0000 N   0  0  0  0  0  0  0  0  0  0  0  0
    5.1145   -1.8123    0.0000 C   0  0  0  0  0  0  0  0  0  0  0  0
    4.2569   -3.0429    0.0000 C   0  0  0  0  0  0  0  0  0  0  0  0
    2.7623   -2.9155    0.0000 C   0  0  0  0  0  0  0  0  0  0  0  0
    1.9047   -4.1461    0.0000 C   0  0  0  0  0  0  0  0  0  0  0  0
    0.4101   -4.0186    0.0000 O   0  0  0  0  0  0  0  0  0  0  0  0
    2.5416   -5.5041    0.0000 N   0  0  0  0  0  0  0  0  0  0  0  0
    5.3352    0.7764    0.0000 C   0  0  0  0  0  0  0  0  0  0  0  0
    4.6983    2.1345    0.0000 C   0  0  0  0  0  0  0  0  0  0  0  0
    5.5560    3.3651    0.0000 C   0  0  0  0  0  0  0  0  0  0  0  0
    7.0505    3.2377    0.0000 N   0  0  0  0  0  0  0  0  0  0  0  0
    7.6875    1.8796    0.0000 C   0  0  0  0  0  0  0  0  0  0  0  0
    6.8298    0.6490    0.0000 N   0  0  0  0  0  0  0  0  0  0  0  0
    4.9190    4.7232    0.0000 N   0  0  0  0  0  0  0  0  0  0  0  0
    3.2037    2.2619    0.0000 F   0  0  0  0  0  0  0  0  0  0  0  0
   -6.4007    4.3846    0.0000 Cl  0  0  0  0  0  0  0  0  0  0  0  0
   -6.8421   -0.7928    0.0000 C   0  0  0  0  0  0  0  0  0  0  0  0
   -7.6997   -2.0234    0.0000 F   0  0  0  0  0  0  0  0  0  0  0  0
   -8.0727    0.0648    0.0000 F   0  0  0  0  0  0  0  0  0  0  0  0
   -5.6115   -1.6505    0.0000 F   0  0  0  0  0  0  0  0  0  0  0  0
  1  2  2  0
  2  3  1  0
  3  4  2  0
  4  5  1  0
  5  6  2  0
  6  7  1  0
  8  7  1  1
  8  9  1  0
  9 10  1  0
 10 11  1  0
 11 12  1  0
 12 13  1  0
 13 14  2  0
 15 12  1  1
 15 16  1  0
 16 17  1  0
 17 18  1  0
 18 19  1  0
 19 20  1  0
 20 21  1  6
 21 22  2  0
 21 23  1  0
 17 24  1  0
 24 25  2  0
 25 26  1  0
 26 27  2  0
 27 28  1  0
 28 29  2  0
 26 30  1  0
 25 31  1  0
  4 32  1  0
  2 33  1  0
 33 34  1  0
 33 35  1  0
 33 36  1  0
  6  1  1  0
 13  8  1  0
 20 15  1  0
 29 24  1  0
M  END
>  <BrandName>  (232) 


>  <Applicants>  (232) 
Sunesis Pharmaceuticals

>  <CHEMBL_ID>  (232) 
CHEMBL4297640

>  <Canonical_Smiles>  (232) 
c1c(cc(cc1N[C@@H]2CCCN(C2=O)[C@H]3CN(CC[C@@H]3C(=O)N)c4c(c(ncn4)N)F)Cl)C(F)(F)F

>  <Chirality>  (232) 
Single Stereoisomer

>  <First_Approval>  (232) 
nan

>  <Phase>  (232) 
2.0

>  <SC_Patent>  (232) 
nan

>  <Synonyms>  (232) 
BIIB-062 | BSK-4841 | FP-0182 | FP0182 | SNS-062 | VECABRUTINIB

>  <Withdrawn>  (232) 
nan

>  <Indications>  (232) 
nan

>  <Type>  (232) 
nan

>  <targets_id>  (232) 
nan

>  <Inchi>  (232) 
InChI=1S/C22H24ClF4N7O2/c23-12-6-11(22(25,26)27)7-13(8-12)32-15-2-1-4-34(21(15)36)16-9-33(5-3-14(16)19(29)35)20-17(24)18(28)30-10-31-20/h6-8,10,14-16,32H,1-5,9H2,(H2,29,35)(H2,28,30,31)/t14-,15+,16-/m0/s1

>  <stdInchikey>  (232) 
QLRRJMOBVVGXEJ-XHSDSOJGSA-N

>  <csid>  (232) 
64835225

>  <Links>  (232) 
|http://www.chemspider.com/Chemical-Structure.64835225.html|https://www.ebi.ac.uk/chembldb/compound/inspect/CHEMBL4297640|https://pubchem.ncbi.nlm.nih.gov/compound/72547837|https://go.drugbank.com/drugs/DB16657|https://www.guidetopharmacology.org/GRAC/LigandDisplayForward?10231|https://precision.fda.gov/uniisearch/srs/unii/PQ7O0OB5GU

>  <LinkName>  (232) 
|ChemSpider|ChEMBL|PubChem|DrugBank|Guide to Pharmacology|FDA SRS

>  <lig_pdb_ID>  (232) 


>  <pdb_IDs>  (232) 


>  <indicationDB>  (232) 


>  <uniprotId>  (232) 


>  <indicationG2P>  (232) 
None

>  <MW>  (232) 
529.2

>  <HBA>  (232) 
7

>  <HBD>  (232) 
3

>  <NRB>  (232) 
5

>  <TPSA>  (232) 
130.5

>  <LogP>  (232) 
2.7

>  <RoF>  (232) 
1

>  <Melting point>  (232) 
nan

>  <Targets>  (232) 
nan

>  <Kinase families>  (232) 


>  <FDA_approved>  (232) 


$$$$
Pelitinib
     RDKit          2D

 33 35  0  0  0  0  0  0  0  0999 V2000
    3.4050   -4.6409    0.0000 C   0  0  0  0  0  0  0  0  0  0  0  0
    2.0006   -4.1140    0.0000 C   0  0  0  0  0  0  0  0  0  0  0  0
    1.7547   -2.6343    0.0000 O   0  0  0  0  0  0  0  0  0  0  0  0
    0.3503   -2.1075    0.0000 C   0  0  0  0  0  0  0  0  0  0  0  0
   -0.8082   -3.0603    0.0000 C   0  0  0  0  0  0  0  0  0  0  0  0
   -2.2127   -2.5334    0.0000 C   0  0  0  0  0  0  0  0  0  0  0  0
   -2.4586   -1.0537    0.0000 C   0  0  0  0  0  0  0  0  0  0  0  0
   -1.3001   -0.1009    0.0000 C   0  0  0  0  0  0  0  0  0  0  0  0
    0.1043   -0.6278    0.0000 C   0  0  0  0  0  0  0  0  0  0  0  0
    1.2628    0.3251    0.0000 N   0  0  0  0  0  0  0  0  0  0  0  0
    2.6673   -0.2018    0.0000 C   0  0  0  0  0  0  0  0  0  0  0  0
    2.9132   -1.6815    0.0000 O   0  0  0  0  0  0  0  0  0  0  0  0
    3.8258    0.7510    0.0000 C   0  0  0  0  0  0  0  0  0  0  0  0
    5.2302    0.2242    0.0000 C   0  0  0  0  0  0  0  0  0  0  0  0
    6.3887    1.1770    0.0000 C   0  0  0  0  0  0  0  0  0  0  0  0
    7.7931    0.6501    0.0000 N   0  0  0  0  0  0  0  0  0  0  0  0
    8.9516    1.6029    0.0000 C   0  0  0  0  0  0  0  0  0  0  0  0
    8.0390   -0.8296    0.0000 C   0  0  0  0  0  0  0  0  0  0  0  0
   -3.8630   -0.5268    0.0000 C   0  0  0  0  0  0  0  0  0  0  0  0
   -5.0215   -1.4797    0.0000 C   0  0  0  0  0  0  0  0  0  0  0  0
   -4.7756   -2.9594    0.0000 C   0  0  0  0  0  0  0  0  0  0  0  0
   -3.3712   -3.4862    0.0000 N   0  0  0  0  0  0  0  0  0  0  0  0
   -6.4259   -0.9528    0.0000 C   0  0  0  0  0  0  0  0  0  0  0  0
   -7.8304   -0.4259    0.0000 N   0  0  0  0  0  0  0  0  0  0  0  0
   -4.1089    0.9529    0.0000 N   0  0  0  0  0  0  0  0  0  0  0  0
   -2.9504    1.9057    0.0000 C   0  0  0  0  0  0  0  0  0  0  0  0
   -1.5460    1.3788    0.0000 C   0  0  0  0  0  0  0  0  0  0  0  0
   -0.3875    2.3317    0.0000 C   0  0  0  0  0  0  0  0  0  0  0  0
   -0.6334    3.8114    0.0000 C   0  0  0  0  0  0  0  0  0  0  0  0
   -2.0379    4.3382    0.0000 C   0  0  0  0  0  0  0  0  0  0  0  0
   -3.1964    3.3854    0.0000 C   0  0  0  0  0  0  0  0  0  0  0  0
   -2.2838    5.8179    0.0000 Cl  0  0  0  0  0  0  0  0  0  0  0  0
    0.5251    4.7642    0.0000 F   0  0  0  0  0  0  0  0  0  0  0  0
  1  2  1  0
  2  3  1  0
  3  4  1  0
  4  5  2  0
  5  6  1  0
  6  7  2  0
  7  8  1  0
  8  9  2  0
  9 10  1  0
 10 11  1  0
 11 12  2  0
 11 13  1  0
 13 14  2  0
 14 15  1  0
 15 16  1  0
 16 17  1  0
 16 18  1  0
  7 19  1  0
 19 20  2  0
 20 21  1  0
 21 22  2  0
 20 23  1  0
 23 24  3  0
 19 25  1  0
 25 26  1  0
 26 27  2  0
 27 28  1  0
 28 29  2  0
 29 30  1  0
 30 31  2  0
 30 32  1  0
 29 33  1  0
  9  4  1  0
 22  6  1  0
 31 26  1  0
M  END
>  <BrandName>  (233) 


>  <Applicants>  (233) 
Wyeth

>  <CHEMBL_ID>  (233) 
CHEMBL607707

>  <Canonical_Smiles>  (233) 
CCOc1cc2c(cc1NC(=O)/C=C/CN(C)C)c(c(cn2)C#N)Nc3ccc(c(c3)Cl)F

>  <Chirality>  (233) 
Achiral Molecule

>  <First_Approval>  (233) 
nan

>  <Phase>  (233) 
2.0

>  <SC_Patent>  (233) 
nan

>  <Synonyms>  (233) 
EKB-569 | PELITINIB | WAY-EKB-569

>  <Withdrawn>  (233) 
{''}

>  <Indications>  (233) 
nan

>  <Type>  (233) 
1

>  <targets_id>  (233) 
P00533|P04626

>  <Inchi>  (233) 
InChI=1S/C24H23ClFN5O2/c1-4-33-22-12-20-17(11-21(22)30-23(32)6-5-9-31(2)3)24(15(13-27)14-28-20)29-16-7-8-19(26)18(25)10-16/h5-8,10-12,14H,4,9H2,1-3H3,(H,28,29)(H,30,32)/b6-5+

>  <stdInchikey>  (233) 
WVUNYSQLFKLYNI-AATRIKPKSA-N

>  <csid>  (233) 
4949255

>  <Links>  (233) 
|http://www.chemspider.com/Chemical-Structure.4949255.html|https://www.ebi.ac.uk/chembldb/compound/inspect/CHEMBL607707|https://pubchem.ncbi.nlm.nih.gov/compound/6445562|https://go.drugbank.com/drugs/DB05524|https://www.rcsb.org/ligand/93J|https://www.ebi.ac.uk/pdbe-srv/pdbechem/chemicalCompound/show/93J|https://www.guidetopharmacology.org/GRAC/LigandDisplayForward?7644|https://zinc15.docking.org/substances/ZINC000000602803|https://precision.fda.gov/uniisearch/srs/unii/X5DWL380Z6|https://www.bindingdb.org/bind/chemsearch/marvin/MolStructure.jsp?monomerid=31090

>  <LinkName>  (233) 
|ChemSpider|ChEMBL|PubChem|DrugBank|RCSB|PDBe|Guide to Pharmacology|ZINC|FDA SRS|BindingDB

>  <lig_pdb_ID>  (233) 
93J

>  <pdb_IDs>  (233) 
5vcw 7axm

>  <indicationDB>  (233) 


>  <uniprotId>  (233) 


>  <indicationG2P>  (233) 
None

>  <MW>  (233) 
467.2

>  <HBA>  (233) 
6

>  <HBD>  (233) 
2

>  <NRB>  (233) 
8

>  <TPSA>  (233) 
90.3

>  <LogP>  (233) 
5.1

>  <RoF>  (233) 
1

>  <Melting point>  (233) 
nan

>  <Targets>  (233) 
EGFR; ERBB2

>  <Kinase families>  (233) 
Tyr

>  <FDA_approved>  (233) 


$$$$
Tenalisib
     RDKit          2D

 31 35  0  0  0  0  0  0  0  0999 V2000
   -1.5190    3.5791    0.0000 C   0  0  0  0  0  0  0  0  0  0  0  0
   -0.1251    3.0248    0.0000 C   0  0  0  0  0  0  0  0  0  0  0  0
    0.0919    1.5406    0.0000 C   0  0  0  0  0  0  0  0  0  0  0  0
    1.4857    0.9864    0.0000 C   0  0  0  0  0  0  0  0  0  0  0  0
    1.7027   -0.4978    0.0000 C   0  0  0  0  0  0  0  0  0  0  0  0
    3.0965   -1.0520    0.0000 C   0  0  0  0  0  0  0  0  0  0  0  0
    3.3135   -2.5363    0.0000 O   0  0  0  0  0  0  0  0  0  0  0  0
    4.2734   -0.1220    0.0000 C   0  0  0  0  0  0  0  0  0  0  0  0
    5.6673   -0.6763    0.0000 C   0  0  0  0  0  0  0  0  0  0  0  0
    6.8442    0.2538    0.0000 C   0  0  0  0  0  0  0  0  0  0  0  0
    6.6272    1.7380    0.0000 C   0  0  0  0  0  0  0  0  0  0  0  0
    5.2334    2.2922    0.0000 C   0  0  0  0  0  0  0  0  0  0  0  0
    4.0565    1.3622    0.0000 C   0  0  0  0  0  0  0  0  0  0  0  0
    2.6626    1.9164    0.0000 O   0  0  0  0  0  0  0  0  0  0  0  0
    0.5258   -1.4278    0.0000 C   0  0  0  0  0  0  0  0  0  0  0  0
   -0.8681   -0.8736    0.0000 C   0  0  0  0  0  0  0  0  0  0  0  0
   -2.0450   -1.8036    0.0000 C   0  0  0  0  0  0  0  0  0  0  0  0
   -1.8280   -3.2879    0.0000 C   0  0  0  0  0  0  0  0  0  0  0  0
   -0.4342   -3.8421    0.0000 C   0  0  0  0  0  0  0  0  0  0  0  0
    0.7427   -2.9121    0.0000 C   0  0  0  0  0  0  0  0  0  0  0  0
   -0.2172   -5.3263    0.0000 F   0  0  0  0  0  0  0  0  0  0  0  0
   -1.0850    0.6106    0.0000 N   0  0  0  0  0  0  0  0  0  0  0  0
   -2.4789    1.1648    0.0000 C   0  0  0  0  0  0  0  0  0  0  0  0
   -3.6558    0.2348    0.0000 C   0  0  0  0  0  0  0  0  0  0  0  0
   -5.0497    0.7890    0.0000 C   0  0  0  0  0  0  0  0  0  0  0  0
   -6.0075   -0.3653    0.0000 N   0  0  0  0  0  0  0  0  0  0  0  0
   -5.2056   -1.6330    0.0000 C   0  0  0  0  0  0  0  0  0  0  0  0
   -3.7522   -1.2621    0.0000 N   0  0  0  0  0  0  0  0  0  0  0  0
   -5.2666    2.2733    0.0000 N   0  0  0  0  0  0  0  0  0  0  0  0
   -4.0897    3.2033    0.0000 C   0  0  0  0  0  0  0  0  0  0  0  0
   -2.6959    2.6490    0.0000 N   0  0  0  0  0  0  0  0  0  0  0  0
  1  2  1  0
  3  2  1  1
  3  4  1  0
  4  5  2  0
  5  6  1  0
  6  7  2  0
  6  8  1  0
  8  9  2  0
  9 10  1  0
 10 11  2  0
 11 12  1  0
 12 13  2  0
 13 14  1  0
  5 15  1  0
 15 16  2  0
 16 17  1  0
 17 18  2  0
 18 19  1  0
 19 20  2  0
 19 21  1  0
  3 22  1  0
 22 23  1  0
 23 24  1  0
 24 25  2  0
 25 26  1  0
 26 27  1  0
 27 28  2  0
 25 29  1  0
 29 30  2  0
 30 31  1  0
 14  4  1  0
 13  8  1  0
 20 15  1  0
 31 23  2  0
 28 24  1  0
M  END
>  <BrandName>  (234) 


>  <Applicants>  (234) 
Rhizen Pharmaceuticals

>  <CHEMBL_ID>  (234) 
CHEMBL4297584

>  <Canonical_Smiles>  (234) 
CC[C@@H](c1c(c(=O)c2ccccc2o1)c3cccc(c3)F)Nc4c5c([nH]cn5)ncn4

>  <Chirality>  (234) 
Single Stereoisomer

>  <First_Approval>  (234) 
nan

>  <Phase>  (234) 
2.0

>  <SC_Patent>  (234) 
nan

>  <Synonyms>  (234) 
TENALISIB

>  <Withdrawn>  (234) 
{'', 'Study NCT05239910 in United States was Withdrawn during PHASE2 because Change in development plan'}

>  <Indications>  (234) 
nan

>  <Type>  (234) 
nan

>  <targets_id>  (234) 
nan

>  <Inchi>  (234) 
InChI=1S/C23H18FN5O2/c1-2-16(29-23-19-22(26-11-25-19)27-12-28-23)21-18(13-6-5-7-14(24)10-13)20(30)15-8-3-4-9-17(15)31-21/h3-12,16H,2H2,1H3,(H2,25,26,27,28,29)/t16-/m0/s1

>  <stdInchikey>  (234) 
HDXDQPRPFRKGKZ-INIZCTEOSA-N

>  <csid>  (234) 
52083673

>  <Links>  (234) 
|http://www.chemspider.com/Chemical-Structure.52083673.html|https://www.ebi.ac.uk/chembldb/compound/inspect/CHEMBL4297584|https://pubchem.ncbi.nlm.nih.gov/compound/86291103|https://go.drugbank.com/drugs/DB15295|https://www.guidetopharmacology.org/GRAC/LigandDisplayForward?9907|https://precision.fda.gov/uniisearch/srs/unii/2261HH611H|https://www.bindingdb.org/bind/chemsearch/marvin/MolStructure.jsp?monomerid=50512870

>  <LinkName>  (234) 
|ChemSpider|ChEMBL|PubChem|DrugBank|Guide to Pharmacology|FDA SRS|BindingDB

>  <lig_pdb_ID>  (234) 


>  <pdb_IDs>  (234) 


>  <indicationDB>  (234) 


>  <uniprotId>  (234) 


>  <indicationG2P>  (234) 
None

>  <MW>  (234) 
415.1

>  <HBA>  (234) 
6

>  <HBD>  (234) 
2

>  <NRB>  (234) 
5

>  <TPSA>  (234) 
96.7

>  <LogP>  (234) 
4.8

>  <RoF>  (234) 
0

>  <Melting point>  (234) 
nan

>  <Targets>  (234) 
nan

>  <Kinase families>  (234) 


>  <FDA_approved>  (234) 


$$$$
Tuvusertib
     RDKit          2D

 27 30  0  0  0  0  0  0  0  0999 V2000
   -6.0427    0.8495    0.0000 C   0  0  0  0  0  0  0  0  0  0  0  0
   -4.7110    1.5398    0.0000 N   0  0  0  0  0  0  0  0  0  0  0  0
   -4.4867    3.0230    0.0000 C   0  0  0  0  0  0  0  0  0  0  0  0
   -3.0069    3.2680    0.0000 N   0  0  0  0  0  0  0  0  0  0  0  0
   -2.3165    1.9363    0.0000 C   0  0  0  0  0  0  0  0  0  0  0  0
   -3.3697    0.8682    0.0000 C   0  0  0  0  0  0  0  0  0  0  0  0
   -3.1247   -0.6116    0.0000 C   0  0  0  0  0  0  0  0  0  0  0  0
   -1.7206   -1.1394    0.0000 C   0  0  0  0  0  0  0  0  0  0  0  0
   -1.4756   -2.6192    0.0000 C   0  0  0  0  0  0  0  0  0  0  0  0
   -2.6347   -3.5713    0.0000 N   0  0  0  0  0  0  0  0  0  0  0  0
   -4.0388   -3.0436    0.0000 C   0  0  0  0  0  0  0  0  0  0  0  0
   -4.2838   -1.5638    0.0000 C   0  0  0  0  0  0  0  0  0  0  0  0
   -5.6879   -1.0360    0.0000 F   0  0  0  0  0  0  0  0  0  0  0  0
   -0.5615   -0.1873    0.0000 N   0  0  0  0  0  0  0  0  0  0  0  0
    0.8426   -0.7150    0.0000 C   0  0  0  0  0  0  0  0  0  0  0  0
    1.0876   -2.1948    0.0000 O   0  0  0  0  0  0  0  0  0  0  0  0
    2.0016    0.2371    0.0000 C   0  0  0  0  0  0  0  0  0  0  0  0
    3.4532   -0.1410    0.0000 C   0  0  0  0  0  0  0  0  0  0  0  0
    4.1435   -1.4727    0.0000 N   0  0  0  0  0  0  0  0  0  0  0  0
    5.6420   -1.5407    0.0000 C   0  0  0  0  0  0  0  0  0  0  0  0
    6.4501   -0.2770    0.0000 C   0  0  0  0  0  0  0  0  0  0  0  0
    7.9486   -0.3450    0.0000 F   0  0  0  0  0  0  0  0  0  0  0  0
    5.7598    1.0547    0.0000 C   0  0  0  0  0  0  0  0  0  0  0  0
    4.2613    1.1227    0.0000 N   0  0  0  0  0  0  0  0  0  0  0  0
    3.3092    2.2818    0.0000 N   0  0  0  0  0  0  0  0  0  0  0  0
    1.9127    1.7345    0.0000 C   0  0  0  0  0  0  0  0  0  0  0  0
    0.6490    2.5426    0.0000 N   0  0  0  0  0  0  0  0  0  0  0  0
  1  2  1  0
  2  3  1  0
  3  4  2  0
  4  5  1  0
  5  6  2  0
  6  7  1  0
  7  8  1  0
  8  9  2  0
  9 10  1  0
 10 11  2  0
 11 12  1  0
 12 13  1  0
  8 14  1  0
 14 15  1  0
 15 16  2  0
 15 17  1  0
 17 18  2  0
 18 19  1  0
 19 20  2  0
 20 21  1  0
 21 22  1  0
 21 23  2  0
 23 24  1  0
 24 25  1  0
 25 26  2  0
 26 27  1  0
  6  2  1  0
 12  7  2  0
 26 17  1  0
 24 18  1  0
M  END
>  <BrandName>  (235) 


>  <Applicants>  (235) 
EMD Serono

>  <CHEMBL_ID>  (235) 
CHEMBL5314933

>  <Canonical_Smiles>  (235) 
CN1C=NC=C1C1C(=CN=CC=1F)NC(=O)C1=C2N=CC(F)=CN2N=C1N

>  <Chirality>  (235) 
Achiral Molecule

>  <First_Approval>  (235) 
nan

>  <Phase>  (235) 
2.0

>  <SC_Patent>  (235) 
nan

>  <Synonyms>  (235) 
M 1774 | TUVUSERTIB

>  <Withdrawn>  (235) 
{''}

>  <Indications>  (235) 
nan

>  <Type>  (235) 
nan

>  <targets_id>  (235) 
nan

>  <Inchi>  (235) 
InChI=1S/C16H12F2N8O/c1-25-7-21-5-11(25)12-9(18)3-20-4-10(12)23-16(27)13-14(19)24-26-6-8(17)2-22-15(13)26/h2-7H,1H3,(H2,19,24)(H,23,27)

>  <stdInchikey>  (235) 
RBQPCTBFIPVIJN-UHFFFAOYSA-N

>  <csid>  (235) 
75533912

>  <Links>  (235) 
|http://www.chemspider.com/Chemical-Structure.75533912.html|https://www.ebi.ac.uk/chembldb/compound/inspect/CHEMBL5314933|https://pubchem.ncbi.nlm.nih.gov/compound/90199447|https://www.bindingdb.org/bind/chemsearch/marvin/MolStructure.jsp?monomerid=412025

>  <LinkName>  (235) 
|ChemSpider|ChEMBL|PubChem|BindingDB

>  <lig_pdb_ID>  (235) 


>  <pdb_IDs>  (235) 


>  <indicationDB>  (235) 


>  <uniprotId>  (235) 


>  <indicationG2P>  (235) 


>  <MW>  (235) 
370.1

>  <HBA>  (235) 
8

>  <HBD>  (235) 
2

>  <NRB>  (235) 
3

>  <TPSA>  (235) 
116.0

>  <LogP>  (235) 
1.6

>  <RoF>  (235) 
0

>  <Melting point>  (235) 
nan

>  <Targets>  (235) 
nan

>  <Kinase families>  (235) 


>  <FDA_approved>  (235) 


$$$$
Ulixertinib
     RDKit          2D

 29 31  0  0  0  0  0  0  0  0999 V2000
    6.7429   -4.1190    0.0000 C   0  0  0  0  0  0  0  0  0  0  0  0
    6.0171   -2.8063    0.0000 C   0  0  0  0  0  0  0  0  0  0  0  0
    4.5174   -2.7784    0.0000 C   0  0  0  0  0  0  0  0  0  0  0  0
    6.7911   -1.5214    0.0000 N   0  0  0  0  0  0  0  0  0  0  0  0
    6.0653   -0.2086    0.0000 C   0  0  0  0  0  0  0  0  0  0  0  0
    4.5656   -0.1808    0.0000 C   0  0  0  0  0  0  0  0  0  0  0  0
    3.8398    1.1319    0.0000 C   0  0  0  0  0  0  0  0  0  0  0  0
    4.6138    2.4168    0.0000 C   0  0  0  0  0  0  0  0  0  0  0  0
    6.1135    2.3890    0.0000 C   0  0  0  0  0  0  0  0  0  0  0  0
    6.8393    1.0762    0.0000 N   0  0  0  0  0  0  0  0  0  0  0  0
    3.8880    3.7296    0.0000 Cl  0  0  0  0  0  0  0  0  0  0  0  0
    2.3401    1.1598    0.0000 C   0  0  0  0  0  0  0  0  0  0  0  0
    1.4360   -0.0372    0.0000 C   0  0  0  0  0  0  0  0  0  0  0  0
    0.0183    0.4527    0.0000 C   0  0  0  0  0  0  0  0  0  0  0  0
    0.0461    1.9525    0.0000 N   0  0  0  0  0  0  0  0  0  0  0  0
    1.4811    2.3894    0.0000 C   0  0  0  0  0  0  0  0  0  0  0  0
   -1.2114   -0.4063    0.0000 C   0  0  0  0  0  0  0  0  0  0  0  0
   -1.0823   -1.9007    0.0000 O   0  0  0  0  0  0  0  0  0  0  0  0
   -2.5701    0.2292    0.0000 N   0  0  0  0  0  0  0  0  0  0  0  0
   -3.7998   -0.6298    0.0000 C   0  0  0  0  0  0  0  0  0  0  0  0
   -3.6707   -2.1243    0.0000 C   0  0  0  0  0  0  0  0  0  0  0  0
   -4.9004   -2.9833    0.0000 O   0  0  0  0  0  0  0  0  0  0  0  0
   -5.1586    0.0056    0.0000 C   0  0  0  0  0  0  0  0  0  0  0  0
   -5.2877    1.5000    0.0000 C   0  0  0  0  0  0  0  0  0  0  0  0
   -6.6464    2.1355    0.0000 C   0  0  0  0  0  0  0  0  0  0  0  0
   -7.8761    1.2764    0.0000 C   0  0  0  0  0  0  0  0  0  0  0  0
   -7.7470   -0.2180    0.0000 C   0  0  0  0  0  0  0  0  0  0  0  0
   -6.3883   -0.8534    0.0000 C   0  0  0  0  0  0  0  0  0  0  0  0
   -8.9767   -1.0770    0.0000 Cl  0  0  0  0  0  0  0  0  0  0  0  0
  1  2  1  0
  2  3  1  0
  2  4  1  0
  4  5  1  0
  5  6  2  0
  6  7  1  0
  7  8  2  0
  8  9  1  0
  9 10  2  0
  8 11  1  0
  7 12  1  0
 12 13  1  0
 13 14  2  0
 14 15  1  0
 15 16  1  0
 14 17  1  0
 17 18  2  0
 17 19  1  0
 19 20  1  0
 20 21  1  6
 21 22  1  0
 20 23  1  0
 23 24  2  0
 24 25  1  0
 25 26  2  0
 26 27  1  0
 27 28  2  0
 27 29  1  0
 10  5  1  0
 16 12  2  0
 28 23  1  0
M  END
>  <BrandName>  (236) 


>  <Applicants>  (236) 
BioMed Valley Discoveries

>  <CHEMBL_ID>  (236) 
CHEMBL3590106

>  <Canonical_Smiles>  (236) 
CC(C)Nc1cc(c(cn1)Cl)c2cc([nH]c2)C(=O)N[C@H](CO)c3cccc(c3)Cl

>  <Chirality>  (236) 
Single Stereoisomer

>  <First_Approval>  (236) 
nan

>  <Phase>  (236) 
2.0

>  <SC_Patent>  (236) 
nan

>  <Synonyms>  (236) 
BVD-523 | BVD-ERK | ULIXERTINIB | VRT-752271

>  <Withdrawn>  (236) 
{''}

>  <Indications>  (236) 
nan

>  <Type>  (236) 
nan

>  <targets_id>  (236) 
P28482|P27361

>  <Inchi>  (236) 
InChI=1S/C21H22Cl2N4O2/c1-12(2)26-20-8-16(17(23)10-25-20)14-7-18(24-9-14)21(29)27-19(11-28)13-4-3-5-15(22)6-13/h3-10,12,19,24,28H,11H2,1-2H3,(H,25,26)(H,27,29)/t19-/m1/s1

>  <stdInchikey>  (236) 
KSERXGMCDHOLSS-LJQANCHMSA-N

>  <csid>  (236) 
9893722

>  <Links>  (236) 
|http://www.chemspider.com/Chemical-Structure.9893722.html|https://www.ebi.ac.uk/chembldb/compound/inspect/CHEMBL3590106|https://pubchem.ncbi.nlm.nih.gov/compound/11719003|https://go.drugbank.com/drugs/DB13930|https://www.rcsb.org/ligand/EVK|https://www.ebi.ac.uk/pdbe-srv/pdbechem/chemicalCompound/show/EVK|https://www.guidetopharmacology.org/GRAC/LigandDisplayForward?9210|https://zinc15.docking.org/substances/ZINC000034642570|https://precision.fda.gov/uniisearch/srs/unii/16ZDH50O1U

>  <LinkName>  (236) 
|ChemSpider|ChEMBL|PubChem|DrugBank|RCSB|PDBe|Guide to Pharmacology|ZINC|FDA SRS

>  <lig_pdb_ID>  (236) 
EVK

>  <pdb_IDs>  (236) 
6gdq

>  <indicationDB>  (236) 


>  <uniprotId>  (236) 


>  <indicationG2P>  (236) 
None

>  <MW>  (236) 
432.1

>  <HBA>  (236) 
4

>  <HBD>  (236) 
4

>  <NRB>  (236) 
7

>  <TPSA>  (236) 
90.0

>  <LogP>  (236) 
4.7

>  <RoF>  (236) 
0

>  <Melting point>  (236) 
nan

>  <Targets>  (236) 
MAPK1; MAPK3

>  <Kinase families>  (236) 
CMGC

>  <FDA_approved>  (236) 


$$$$
Uprosertib
     RDKit          2D

 28 30  0  0  0  0  0  0  0  0999 V2000
   -5.9815   -0.1961    0.0000 C   0  0  0  0  0  0  0  0  0  0  0  0
   -5.0158    0.9517    0.0000 N   0  0  0  0  0  0  0  0  0  0  0  0
   -3.5196    0.8451    0.0000 C   0  0  0  0  0  0  0  0  0  0  0  0
   -2.9559    2.2351    0.0000 C   0  0  0  0  0  0  0  0  0  0  0  0
   -4.1037    3.2008    0.0000 C   0  0  0  0  0  0  0  0  0  0  0  0
   -5.3768    2.4076    0.0000 N   0  0  0  0  0  0  0  0  0  0  0  0
   -1.5000    2.5961    0.0000 Cl  0  0  0  0  0  0  0  0  0  0  0  0
   -2.7264   -0.4280    0.0000 C   0  0  0  0  0  0  0  0  0  0  0  0
   -1.2302   -0.5346    0.0000 C   0  0  0  0  0  0  0  0  0  0  0  0
   -0.8693   -1.9906    0.0000 C   0  0  0  0  0  0  0  0  0  0  0  0
   -2.1424   -2.7838    0.0000 O   0  0  0  0  0  0  0  0  0  0  0  0
   -3.2902   -1.8181    0.0000 C   0  0  0  0  0  0  0  0  0  0  0  0
   -4.7461   -2.1790    0.0000 Cl  0  0  0  0  0  0  0  0  0  0  0  0
    0.5208   -2.5543    0.0000 C   0  0  0  0  0  0  0  0  0  0  0  0
    0.7276   -4.0400    0.0000 O   0  0  0  0  0  0  0  0  0  0  0  0
    1.7040   -1.6324    0.0000 N   0  0  0  0  0  0  0  0  0  0  0  0
    3.0940   -2.1961    0.0000 C   0  0  0  0  0  0  0  0  0  0  0  0
    4.2773   -1.2742    0.0000 C   0  0  0  0  0  0  0  0  0  0  0  0
    4.0705    0.2115    0.0000 C   0  0  0  0  0  0  0  0  0  0  0  0
    5.2537    1.1334    0.0000 C   0  0  0  0  0  0  0  0  0  0  0  0
    5.0469    2.6191    0.0000 C   0  0  0  0  0  0  0  0  0  0  0  0
    3.6569    3.1829    0.0000 C   0  0  0  0  0  0  0  0  0  0  0  0
    2.4736    2.2609    0.0000 C   0  0  0  0  0  0  0  0  0  0  0  0
    2.6804    0.7752    0.0000 C   0  0  0  0  0  0  0  0  0  0  0  0
    1.0836    2.8247    0.0000 F   0  0  0  0  0  0  0  0  0  0  0  0
    3.4501    4.6685    0.0000 F   0  0  0  0  0  0  0  0  0  0  0  0
    3.3008   -3.6818    0.0000 C   0  0  0  0  0  0  0  0  0  0  0  0
    2.1176   -4.6037    0.0000 N   0  0  0  0  0  0  0  0  0  0  0  0
  1  2  1  0
  2  3  1  0
  3  4  2  0
  4  5  1  0
  5  6  2  0
  4  7  1  0
  3  8  1  0
  8  9  1  0
  9 10  2  0
 10 11  1  0
 11 12  1  0
 12 13  1  0
 10 14  1  0
 14 15  2  0
 14 16  1  0
 16 17  1  0
 17 18  1  1
 18 19  1  0
 19 20  2  0
 20 21  1  0
 21 22  2  0
 22 23  1  0
 23 24  2  0
 23 25  1  0
 22 26  1  0
 17 27  1  0
 27 28  1  0
  6  2  1  0
 12  8  2  0
 24 19  1  0
M  END
>  <BrandName>  (237) 


>  <Applicants>  (237) 
GlaxoSmithKline

>  <CHEMBL_ID>  (237) 
CHEMBL3137336

>  <Canonical_Smiles>  (237) 
Cn1c(c(cn1)Cl)c2cc(oc2Cl)C(=O)N[C@@H](Cc3ccc(c(c3)F)F)CN

>  <Chirality>  (237) 
Single Stereoisomer

>  <First_Approval>  (237) 
nan

>  <Phase>  (237) 
2.0

>  <SC_Patent>  (237) 
nan

>  <Synonyms>  (237) 
AKT INHIBITOR GSK-2141795 | AKT INHIBITOR GSK2141795 | GSK-2141795 | GSK-2141795C | GSK2141795 | GSK2141795C | UPROSERTIB

>  <Withdrawn>  (237) 
{''}

>  <Indications>  (237) 
nan

>  <Type>  (237) 
nan

>  <targets_id>  (237) 
P31749|P31751|Q9Y243

>  <Inchi>  (237) 
InChI=1S/C18H16Cl2F2N4O2/c1-26-16(12(19)8-24-26)11-6-15(28-17(11)20)18(27)25-10(7-23)4-9-2-3-13(21)14(22)5-9/h2-3,5-6,8,10H,4,7,23H2,1H3,(H,25,27)/t10-/m0/s1

>  <stdInchikey>  (237) 
AXTAPYRUEKNRBA-JTQLQIEISA-N

>  <csid>  (237) 
32701836

>  <Links>  (237) 
|http://www.chemspider.com/Chemical-Structure.32701836.html|https://www.ebi.ac.uk/chembldb/compound/inspect/CHEMBL3137336|https://pubchem.ncbi.nlm.nih.gov/compound/51042438|https://go.drugbank.com/drugs/DB11969|https://www.guidetopharmacology.org/GRAC/LigandDisplayForward?7902|https://zinc15.docking.org/substances/ZINC000043197676|https://precision.fda.gov/uniisearch/srs/unii/ZXM835LQ5E|https://www.bindingdb.org/bind/chemsearch/marvin/MolStructure.jsp?monomerid=50170284

>  <LinkName>  (237) 
|ChemSpider|ChEMBL|PubChem|DrugBank|Guide to Pharmacology|ZINC|FDA SRS|BindingDB

>  <lig_pdb_ID>  (237) 


>  <pdb_IDs>  (237) 


>  <indicationDB>  (237) 


>  <uniprotId>  (237) 


>  <indicationG2P>  (237) 
None

>  <MW>  (237) 
428.1

>  <HBA>  (237) 
5

>  <HBD>  (237) 
2

>  <NRB>  (237) 
6

>  <TPSA>  (237) 
86.1

>  <LogP>  (237) 
3.6

>  <RoF>  (237) 
0

>  <Melting point>  (237) 
nan

>  <Targets>  (237) 
AKT1; AKT2; AKT3

>  <Kinase families>  (237) 
AGC

>  <FDA_approved>  (237) 


$$$$
Vactosertib
     RDKit          2D

 30 34  0  0  0  0  0  0  0  0999 V2000
   -1.1512   -6.1698    0.0000 C   0  0  0  0  0  0  0  0  0  0  0  0
   -1.7289   -4.7856    0.0000 C   0  0  0  0  0  0  0  0  0  0  0  0
   -3.2166   -4.5938    0.0000 C   0  0  0  0  0  0  0  0  0  0  0  0
   -3.7944   -3.2096    0.0000 C   0  0  0  0  0  0  0  0  0  0  0  0
   -2.8845   -2.0171    0.0000 C   0  0  0  0  0  0  0  0  0  0  0  0
   -1.3968   -2.2088    0.0000 C   0  0  0  0  0  0  0  0  0  0  0  0
   -0.8190   -3.5931    0.0000 N   0  0  0  0  0  0  0  0  0  0  0  0
   -0.4869   -1.0163    0.0000 C   0  0  0  0  0  0  0  0  0  0  0  0
   -0.9168    0.4207    0.0000 C   0  0  0  0  0  0  0  0  0  0  0  0
    0.3171    1.2737    0.0000 N   0  0  0  0  0  0  0  0  0  0  0  0
    1.5096    0.3638    0.0000 C   0  0  0  0  0  0  0  0  0  0  0  0
    1.0127   -1.0515    0.0000 N   0  0  0  0  0  0  0  0  0  0  0  0
    2.9467    0.7937    0.0000 C   0  0  0  0  0  0  0  0  0  0  0  0
    4.0375   -0.2359    0.0000 N   0  0  0  0  0  0  0  0  0  0  0  0
    5.4746    0.1940    0.0000 C   0  0  0  0  0  0  0  0  0  0  0  0
    6.5654   -0.8355    0.0000 C   0  0  0  0  0  0  0  0  0  0  0  0
    8.0025   -0.4056    0.0000 C   0  0  0  0  0  0  0  0  0  0  0  0
    8.3487    1.0539    0.0000 C   0  0  0  0  0  0  0  0  0  0  0  0
    7.2579    2.0834    0.0000 C   0  0  0  0  0  0  0  0  0  0  0  0
    5.8208    1.6535    0.0000 C   0  0  0  0  0  0  0  0  0  0  0  0
    4.7300    2.6831    0.0000 F   0  0  0  0  0  0  0  0  0  0  0  0
   -2.3321    0.9176    0.0000 C   0  0  0  0  0  0  0  0  0  0  0  0
   -3.4701   -0.0596    0.0000 C   0  0  0  0  0  0  0  0  0  0  0  0
   -4.8854    0.4372    0.0000 C   0  0  0  0  0  0  0  0  0  0  0  0
   -5.1627    1.9114    0.0000 C   0  0  0  0  0  0  0  0  0  0  0  0
   -6.4438    2.6917    0.0000 N   0  0  0  0  0  0  0  0  0  0  0  0
   -6.0976    4.1512    0.0000 C   0  0  0  0  0  0  0  0  0  0  0  0
   -4.6025    4.2729    0.0000 N   0  0  0  0  0  0  0  0  0  0  0  0
   -4.0248    2.8886    0.0000 N   0  0  0  0  0  0  0  0  0  0  0  0
   -2.6094    2.3918    0.0000 C   0  0  0  0  0  0  0  0  0  0  0  0
  1  2  1  0
  2  3  2  0
  3  4  1  0
  4  5  2  0
  5  6  1  0
  6  7  2  0
  6  8  1  0
  8  9  2  0
  9 10  1  0
 10 11  2  0
 11 12  1  0
 11 13  1  0
 13 14  1  0
 14 15  1  0
 15 16  2  0
 16 17  1  0
 17 18  2  0
 18 19  1  0
 19 20  2  0
 20 21  1  0
  9 22  1  0
 22 23  1  0
 23 24  2  0
 24 25  1  0
 25 26  2  0
 26 27  1  0
 27 28  2  0
 28 29  1  0
 29 30  1  0
  7  2  1  0
 12  8  1  0
 20 15  1  0
 30 22  2  0
 29 25  1  0
M  END
>  <BrandName>  (238) 


>  <Applicants>  (238) 
MedPacto

>  <CHEMBL_ID>  (238) 
CHEMBL3260567

>  <Canonical_Smiles>  (238) 
Cc1cccc(n1)c2c(nc([nH]2)CNc3ccccc3F)c4ccc5ncnn5c4

>  <Chirality>  (238) 
Achiral Molecule

>  <First_Approval>  (238) 
nan

>  <Phase>  (238) 
2.0

>  <SC_Patent>  (238) 
nan

>  <Synonyms>  (238) 
EW-7197 | TEW 7197 | TEW-7197 | VACTOSERTIB

>  <Withdrawn>  (238) 
{'', 'Study NCT06219733 in Korea, Republic of was Withdrawn during PHASE2 because Changing trial strategy', 'Study NCT04064190 in United States was Withdrawn during PHASE2 because Changing trial strategy'}

>  <Indications>  (238) 
Vactosertib (EW-7197) acts as in inhibitor of transforming growth factor beta receptor 1B (ALK5) and activin A receptor type IB (ALK4). The compound is potent, selective, and orally bioavailable, and exhibits experimental anti-tumour activity.

>  <Type>  (238) 
nan

>  <targets_id>  (238) 
nan

>  <Inchi>  (238) 
InChI=1S/C22H18FN7/c1-14-5-4-8-18(27-14)22-21(15-9-10-20-25-13-26-30(20)12-15)28-19(29-22)11-24-17-7-3-2-6-16(17)23/h2-10,12-13,24H,11H2,1H3,(H,28,29)

>  <stdInchikey>  (238) 
FJCDSQATIJKQKA-UHFFFAOYSA-N

>  <csid>  (238) 
32813335

>  <Links>  (238) 
|http://www.chemspider.com/Chemical-Structure.32813335.html|https://www.ebi.ac.uk/chembldb/compound/inspect/CHEMBL3260567|https://pubchem.ncbi.nlm.nih.gov/compound/54766013|https://go.drugbank.com/drugs/DB15310|https://www.guidetopharmacology.org/GRAC/LigandDisplayForward?8107|https://zinc15.docking.org/substances/ZINC000113391423|https://precision.fda.gov/uniisearch/srs/unii/6T4O391P5Y|https://www.bindingdb.org/bind/chemsearch/marvin/MolStructure.jsp?monomerid=50015639

>  <LinkName>  (238) 
|ChemSpider|ChEMBL|PubChem|DrugBank|Guide to Pharmacology|ZINC|FDA SRS|BindingDB

>  <lig_pdb_ID>  (238) 


>  <pdb_IDs>  (238) 


>  <indicationDB>  (238) 


>  <uniprotId>  (238) 


>  <indicationG2P>  (238) 
None

>  <MW>  (238) 
399.2

>  <HBA>  (238) 
6

>  <HBD>  (238) 
2

>  <NRB>  (238) 
5

>  <TPSA>  (238) 
83.8

>  <LogP>  (238) 
4.2

>  <RoF>  (238) 
0

>  <Melting point>  (238) 
nan

>  <Targets>  (238) 
nan

>  <Kinase families>  (238) 


>  <FDA_approved>  (238) 


$$$$
Vebreltinib
     RDKit          2D

 31 36  0  0  0  0  0  0  0  0999 V2000
    8.8095   -2.2440    0.0000 C   0  0  0  0  0  0  0  0  0  0  0  0
    7.3660   -1.8361    0.0000 N   0  0  0  0  0  0  0  0  0  0  0  0
    6.8476   -0.4286    0.0000 C   0  0  0  0  0  0  0  0  0  0  0  0
    5.3487   -0.4867    0.0000 C   0  0  0  0  0  0  0  0  0  0  0  0
    4.3025    0.5883    0.0000 C   0  0  0  0  0  0  0  0  0  0  0  0
    2.8485    0.2198    0.0000 C   0  0  0  0  0  0  0  0  0  0  0  0
    1.8024    1.2947    0.0000 C   0  0  0  0  0  0  0  0  0  0  0  0
    2.8773    2.3409    0.0000 F   0  0  0  0  0  0  0  0  0  0  0  0
    0.7274    0.2486    0.0000 F   0  0  0  0  0  0  0  0  0  0  0  0
    0.7562    2.3697    0.0000 C   0  0  0  0  0  0  0  0  0  0  0  0
    1.0110    3.8479    0.0000 N   0  0  0  0  0  0  0  0  0  0  0  0
   -0.3162    4.5470    0.0000 N   0  0  0  0  0  0  0  0  0  0  0  0
   -1.3911    3.5009    0.0000 C   0  0  0  0  0  0  0  0  0  0  0  0
   -2.8879    3.5997    0.0000 C   0  0  0  0  0  0  0  0  0  0  0  0
   -3.7219    2.3529    0.0000 C   0  0  0  0  0  0  0  0  0  0  0  0
   -3.0591    1.0073    0.0000 C   0  0  0  0  0  0  0  0  0  0  0  0
   -3.8931   -0.2395    0.0000 C   0  0  0  0  0  0  0  0  0  0  0  0
   -3.3746   -1.6470    0.0000 C   0  0  0  0  0  0  0  0  0  0  0  0
   -4.5530   -2.5751    0.0000 N   0  0  0  0  0  0  0  0  0  0  0  0
   -5.7998   -1.7411    0.0000 N   0  0  0  0  0  0  0  0  0  0  0  0
   -7.2074   -2.2596    0.0000 C   0  0  0  0  0  0  0  0  0  0  0  0
   -8.1671   -3.4124    0.0000 C   0  0  0  0  0  0  0  0  0  0  0  0
   -8.6856   -2.0048    0.0000 C   0  0  0  0  0  0  0  0  0  0  0  0
   -5.3919   -0.2976    0.0000 C   0  0  0  0  0  0  0  0  0  0  0  0
   -1.5624    0.9084    0.0000 N   0  0  0  0  0  0  0  0  0  0  0  0
   -0.7284    2.1552    0.0000 N   0  0  0  0  0  0  0  0  0  0  0  0
    2.4406   -1.2237    0.0000 C   0  0  0  0  0  0  0  0  0  0  0  0
    0.9866   -1.5922    0.0000 F   0  0  0  0  0  0  0  0  0  0  0  0
    3.4868   -2.2987    0.0000 C   0  0  0  0  0  0  0  0  0  0  0  0
    4.9408   -1.9302    0.0000 C   0  0  0  0  0  0  0  0  0  0  0  0
    6.1876   -2.7642    0.0000 N   0  0  0  0  0  0  0  0  0  0  0  0
  1  2  1  0
  2  3  1  0
  3  4  2  0
  4  5  1  0
  5  6  2  0
  6  7  1  0
  7  8  1  0
  7  9  1  0
  7 10  1  0
 10 11  2  0
 11 12  1  0
 12 13  2  0
 13 14  1  0
 14 15  2  0
 15 16  1  0
 16 17  1  0
 17 18  1  0
 18 19  2  0
 19 20  1  0
 20 21  1  0
 21 22  1  0
 22 23  1  0
 20 24  1  0
 16 25  2  0
 25 26  1  0
  6 27  1  0
 27 28  1  0
 27 29  2  0
 29 30  1  0
 30 31  2  0
 31  2  1  0
 30  4  1  0
 26 10  1  0
 26 13  1  0
 24 17  2  0
 23 21  1  0
M  END
>  <BrandName>  (239) 


>  <Applicants>  (239) 
Crown Bioscience

>  <CHEMBL_ID>  (239) 
CHEMBL4650443

>  <Canonical_Smiles>  (239) 
Cn1cc2cc(C(F)(F)c3nnc4ccc(-c5cnn(C6CC6)c5)nn34)c(F)cc2n1

>  <Chirality>  (239) 
Achiral Molecule

>  <First_Approval>  (239) 
nan

>  <Phase>  (239) 
2.0

>  <SC_Patent>  (239) 
nan

>  <Synonyms>  (239) 
APL-101 | BOZITINIB | CBI-3103 | CBT-101 | PLB-1001 | VEBRELTINIB

>  <Withdrawn>  (239) 
{''}

>  <Indications>  (239) 
nan

>  <Type>  (239) 
nan

>  <targets_id>  (239) 
nan

>  <Inchi>  (239) 
InChI=1S/C20H15F3N8/c1-29-9-11-6-14(15(21)7-17(11)27-29)20(22,23)19-26-25-18-5-4-16(28-31(18)19)12-8-24-30(10-12)13-2-3-13/h4-10,13H,2-3H2,1H3

>  <stdInchikey>  (239) 
QHXLXUIZUCJRKV-UHFFFAOYSA-N

>  <csid>  (239) 
72388443

>  <Links>  (239) 
|http://www.chemspider.com/Chemical-Structure.72388443.html|https://www.ebi.ac.uk/chembldb/compound/inspect/CHEMBL4650443|https://pubchem.ncbi.nlm.nih.gov/compound/72202701|https://go.drugbank.com/drugs/DB16823|https://precision.fda.gov/uniisearch/srs/unii/2WZP8A9VFN|https://www.bindingdb.org/bind/chemsearch/marvin/MolStructure.jsp?monomerid=107096

>  <LinkName>  (239) 
|ChemSpider|ChEMBL|PubChem|DrugBank|FDA SRS|BindingDB

>  <lig_pdb_ID>  (239) 


>  <pdb_IDs>  (239) 


>  <indicationDB>  (239) 


>  <uniprotId>  (239) 


>  <indicationG2P>  (239) 


>  <MW>  (239) 
424.1

>  <HBA>  (239) 
8

>  <HBD>  (239) 
0

>  <NRB>  (239) 
4

>  <TPSA>  (239) 
78.7

>  <LogP>  (239) 
3.5

>  <RoF>  (239) 
0

>  <Melting point>  (239) 
nan

>  <Targets>  (239) 
nan

>  <Kinase families>  (239) 


>  <FDA_approved>  (239) 


$$$$
Vistusertib
     RDKit          2D

 34 38  0  0  0  0  0  0  0  0999 V2000
   -1.0315   -3.6070    0.0000 C   0  0  0  0  0  0  0  0  0  0  0  0
   -2.5311   -3.5725    0.0000 C   0  0  0  0  0  0  0  0  0  0  0  0
   -3.3107   -4.8540    0.0000 C   0  0  0  0  0  0  0  0  0  0  0  0
   -4.8104   -4.8196    0.0000 O   0  0  0  0  0  0  0  0  0  0  0  0
   -5.5304   -3.5037    0.0000 C   0  0  0  0  0  0  0  0  0  0  0  0
   -4.7508   -2.2222    0.0000 C   0  0  0  0  0  0  0  0  0  0  0  0
   -3.2511   -2.2566    0.0000 N   0  0  0  0  0  0  0  0  0  0  0  0
   -2.4715   -0.9752    0.0000 C   0  0  0  0  0  0  0  0  0  0  0  0
   -0.9719   -1.0096    0.0000 C   0  0  0  0  0  0  0  0  0  0  0  0
   -0.2519   -2.3255    0.0000 C   0  0  0  0  0  0  0  0  0  0  0  0
    1.2477   -2.3599    0.0000 C   0  0  0  0  0  0  0  0  0  0  0  0
    2.0273   -1.0784    0.0000 C   0  0  0  0  0  0  0  0  0  0  0  0
    1.3073    0.2375    0.0000 N   0  0  0  0  0  0  0  0  0  0  0  0
   -0.1923    0.2719    0.0000 C   0  0  0  0  0  0  0  0  0  0  0  0
   -0.9123    1.5878    0.0000 N   0  0  0  0  0  0  0  0  0  0  0  0
   -2.4120    1.6222    0.0000 C   0  0  0  0  0  0  0  0  0  0  0  0
   -3.1916    0.3407    0.0000 N   0  0  0  0  0  0  0  0  0  0  0  0
   -3.1320    2.9381    0.0000 N   0  0  0  0  0  0  0  0  0  0  0  0
   -2.3524    4.2196    0.0000 C   0  0  0  0  0  0  0  0  0  0  0  0
   -3.0724    5.5355    0.0000 C   0  0  0  0  0  0  0  0  0  0  0  0
   -4.5720    5.5699    0.0000 O   0  0  0  0  0  0  0  0  0  0  0  0
   -5.3516    4.2884    0.0000 C   0  0  0  0  0  0  0  0  0  0  0  0
   -4.6316    2.9725    0.0000 C   0  0  0  0  0  0  0  0  0  0  0  0
   -5.4112    1.6911    0.0000 C   0  0  0  0  0  0  0  0  0  0  0  0
    3.5269   -1.1128    0.0000 C   0  0  0  0  0  0  0  0  0  0  0  0
    4.2469   -2.4287    0.0000 C   0  0  0  0  0  0  0  0  0  0  0  0
    5.7465   -2.4631    0.0000 C   0  0  0  0  0  0  0  0  0  0  0  0
    6.5261   -1.1816    0.0000 C   0  0  0  0  0  0  0  0  0  0  0  0
    5.8061    0.1343    0.0000 C   0  0  0  0  0  0  0  0  0  0  0  0
    4.3065    0.1687    0.0000 C   0  0  0  0  0  0  0  0  0  0  0  0
    6.5857    1.4158    0.0000 C   0  0  0  0  0  0  0  0  0  0  0  0
    5.8657    2.7317    0.0000 O   0  0  0  0  0  0  0  0  0  0  0  0
    8.0853    1.3814    0.0000 N   0  0  0  0  0  0  0  0  0  0  0  0
    8.8649    2.6629    0.0000 C   0  0  0  0  0  0  0  0  0  0  0  0
  2  1  1  1
  2  3  1  0
  3  4  1  0
  4  5  1  0
  5  6  1  0
  6  7  1  0
  7  8  1  0
  8  9  1  0
  9 10  2  0
 10 11  1  0
 11 12  2  0
 12 13  1  0
 13 14  2  0
 14 15  1  0
 15 16  2  0
 16 17  1  0
 16 18  1  0
 18 19  1  0
 19 20  1  0
 20 21  1  0
 21 22  1  0
 22 23  1  0
 23 24  1  1
 12 25  1  0
 25 26  2  0
 26 27  1  0
 27 28  2  0
 28 29  1  0
 29 30  2  0
 29 31  1  0
 31 32  2  0
 31 33  1  0
 33 34  1  0
  7  2  1  0
 17  8  2  0
 14  9  1  0
 23 18  1  0
 30 25  1  0
M  END
>  <BrandName>  (240) 


>  <Applicants>  (240) 
Astrazeneca

>  <CHEMBL_ID>  (240) 
CHEMBL2336325

>  <Canonical_Smiles>  (240) 
C[C@H]1COCCN1c2c3ccc(nc3nc(n2)N4CCOC[C@@H]4C)c5cccc(c5)C(=O)NC

>  <Chirality>  (240) 
Single Stereoisomer

>  <First_Approval>  (240) 
nan

>  <Phase>  (240) 
2.0

>  <SC_Patent>  (240) 
nan

>  <Synonyms>  (240) 
AZD-2014 | AZD2014 | VISTUSERTIB

>  <Withdrawn>  (240) 
{'', 'Study NCT02780830 in unknown country was Withdrawn during PHASE1 because Study D2276C00001 was not started No patients were enrolled The sponsor decided to pursue an alternate design'}

>  <Indications>  (240) 
nan

>  <Type>  (240) 
nan

>  <targets_id>  (240) 
P42345

>  <Inchi>  (240) 
InChI=1S/C25H30N6O3/c1-16-14-33-11-9-30(16)23-20-7-8-21(18-5-4-6-19(13-18)24(32)26-3)27-22(20)28-25(29-23)31-10-12-34-15-17(31)2/h4-8,13,16-17H,9-12,14-15H2,1-3H3,(H,26,32)/t16-,17-/m0/s1

>  <stdInchikey>  (240) 
JUSFANSTBFGBAF-IRXDYDNUSA-N

>  <csid>  (240) 
28294977

>  <Links>  (240) 
|http://www.chemspider.com/Chemical-Structure.28294977.html|https://www.ebi.ac.uk/chembldb/compound/inspect/CHEMBL2336325|https://pubchem.ncbi.nlm.nih.gov/compound/25262792|https://go.drugbank.com/drugs/DB11925|https://www.guidetopharmacology.org/GRAC/LigandDisplayForward?7699|https://zinc15.docking.org/substances/ZINC000059258964|https://precision.fda.gov/uniisearch/srs/unii/0BSC3P4H5X|https://www.bindingdb.org/bind/chemsearch/marvin/MolStructure.jsp?monomerid=50429701

>  <LinkName>  (240) 
|ChemSpider|ChEMBL|PubChem|DrugBank|Guide to Pharmacology|ZINC|FDA SRS|BindingDB

>  <lig_pdb_ID>  (240) 


>  <pdb_IDs>  (240) 


>  <indicationDB>  (240) 


>  <uniprotId>  (240) 


>  <indicationG2P>  (240) 
None

>  <MW>  (240) 
462.2

>  <HBA>  (240) 
8

>  <HBD>  (240) 
1

>  <NRB>  (240) 
4

>  <TPSA>  (240) 
92.7

>  <LogP>  (240) 
2.5

>  <RoF>  (240) 
0

>  <Melting point>  (240) 
nan

>  <Targets>  (240) 
MTOR

>  <Kinase families>  (240) 
Atypical

>  <FDA_approved>  (240) 


$$$$
Darizmetinib
     RDKit          2D

 32 35  0  0  0  0  0  0  0  0999 V2000
   -9.5155    0.8531    0.0000 C   0  0  0  0  0  0  0  0  0  0  0  0
   -8.0280    0.6603    0.0000 C   0  0  0  0  0  0  0  0  0  0  0  0
   -7.4512   -0.7244    0.0000 C   0  0  0  0  0  0  0  0  0  0  0  0
   -5.9637   -0.9173    0.0000 S   0  0  0  0  0  0  0  0  0  0  0  0
   -5.7708    0.5703    0.0000 O   0  0  0  0  0  0  0  0  0  0  0  0
   -6.1565   -2.4048    0.0000 O   0  0  0  0  0  0  0  0  0  0  0  0
   -4.4761   -1.1101    0.0000 N   0  0  0  0  0  0  0  0  0  0  0  0
   -3.5653    0.0817    0.0000 C   0  0  0  0  0  0  0  0  0  0  0  0
   -4.1421    1.4664    0.0000 C   0  0  0  0  0  0  0  0  0  0  0  0
   -5.6296    1.6593    0.0000 F   0  0  0  0  0  0  0  0  0  0  0  0
   -3.2313    2.6582    0.0000 C   0  0  0  0  0  0  0  0  0  0  0  0
   -1.7438    2.4654    0.0000 C   0  0  0  0  0  0  0  0  0  0  0  0
   -1.1670    1.0807    0.0000 C   0  0  0  0  0  0  0  0  0  0  0  0
    0.3206    0.8879    0.0000 C   0  0  0  0  0  0  0  0  0  0  0  0
    1.2314    2.0797    0.0000 O   0  0  0  0  0  0  0  0  0  0  0  0
    0.8973   -0.4968    0.0000 C   0  0  0  0  0  0  0  0  0  0  0  0
    0.1161   -1.7773    0.0000 N   0  0  0  0  0  0  0  0  0  0  0  0
    1.0925   -2.9160    0.0000 N   0  0  0  0  0  0  0  0  0  0  0  0
    2.4772   -2.3392    0.0000 C   0  0  0  0  0  0  0  0  0  0  0  0
    3.8324   -2.9823    0.0000 N   0  0  0  0  0  0  0  0  0  0  0  0
    5.0669   -2.1303    0.0000 C   0  0  0  0  0  0  0  0  0  0  0  0
    4.9462   -0.6351    0.0000 C   0  0  0  0  0  0  0  0  0  0  0  0
    6.1807    0.2169    0.0000 C   0  0  0  0  0  0  0  0  0  0  0  0
    7.5359   -0.4262    0.0000 C   0  0  0  0  0  0  0  0  0  0  0  0
    8.7704    0.4259    0.0000 C   0  0  0  0  0  0  0  0  0  0  0  0
    8.6498    1.9210    0.0000 N   0  0  0  0  0  0  0  0  0  0  0  0
    7.2946    2.5641    0.0000 C   0  0  0  0  0  0  0  0  0  0  0  0
    6.0601    1.7121    0.0000 C   0  0  0  0  0  0  0  0  0  0  0  0
    3.5911    0.0080    0.0000 C   0  0  0  0  0  0  0  0  0  0  0  0
    2.3566   -0.8441    0.0000 C   0  0  0  0  0  0  0  0  0  0  0  0
   -2.0778   -0.1111    0.0000 C   0  0  0  0  0  0  0  0  0  0  0  0
   -1.5010   -1.4958    0.0000 F   0  0  0  0  0  0  0  0  0  0  0  0
  1  2  1  0
  2  3  1  0
  3  4  1  0
  4  5  2  0
  4  6  2  0
  4  7  1  0
  7  8  1  0
  8  9  2  0
  9 10  1  0
  9 11  1  0
 11 12  2  0
 12 13  1  0
 13 14  1  0
 14 15  2  0
 14 16  1  0
 16 17  2  0
 17 18  1  0
 18 19  1  0
 19 20  2  0
 20 21  1  0
 21 22  2  0
 22 23  1  0
 23 24  2  0
 24 25  1  0
 25 26  2  0
 26 27  1  0
 27 28  2  0
 22 29  1  0
 29 30  2  0
 13 31  2  0
 31 32  1  0
 31  8  1  0
 30 16  1  0
 30 19  1  0
 28 23  1  0
M  END
>  <BrandName>  (241) 


>  <Applicants>  (241) 
('',)

>  <CHEMBL_ID>  (241) 
CHEMBL4795907

>  <Canonical_Smiles>  (241) 
CCCS(=O)(=O)Nc1c(F)ccc(C(=O)c2n[nH]c3ncc(-c4ccncc4)cc23)c1F

>  <Chirality>  (241) 
Achiral Molecule

>  <First_Approval>  (241) 
nan

>  <Phase>  (241) 
2.0

>  <SC_Patent>  (241) 
nan

>  <Synonyms>  (241) 
DARIZMETINIB

>  <Withdrawn>  (241) 
nan

>  <Indications>  (241) 
nan

>  <Type>  (241) 
nan

>  <targets_id>  (241) 
nan

>  <Inchi>  (241) 
InChI=1S/C21H17F2N5O3S/c1-2-9-32(30,31)28-19-16(22)4-3-14(17(19)23)20(29)18-15-10-13(11-25-21(15)27-26-18)12-5-7-24-8-6-12/h3-8,10-11,28H,2,9H2,1H3,(H,25,26,27)

>  <stdInchikey>  (241) 
WBNMARNYIFMNEP-UHFFFAOYSA-N

>  <csid>  (241) 
129156636

>  <Links>  (241) 
|http://www.chemspider.com/Chemical-Structure.129156636.html|https://www.ebi.ac.uk/chembldb/compound/inspect/CHEMBL4795907|https://pubchem.ncbi.nlm.nih.gov/compound/139369660

>  <LinkName>  (241) 
|ChemSpider|ChEMBL|PubChem

>  <lig_pdb_ID>  (241) 


>  <pdb_IDs>  (241) 


>  <indicationDB>  (241) 


>  <uniprotId>  (241) 


>  <indicationG2P>  (241) 


>  <MW>  (241) 
457.1

>  <HBA>  (241) 
6

>  <HBD>  (241) 
2

>  <NRB>  (241) 
7

>  <TPSA>  (241) 
117.7

>  <LogP>  (241) 
3.7

>  <RoF>  (241) 
0

>  <Melting point>  (241) 
nan

>  <Targets>  (241) 
nan

>  <Kinase families>  (241) 


>  <FDA_approved>  (241) 


$$$$
Lifirafenib
     RDKit          2D

 35 41  0  0  0  0  0  0  0  0999 V2000
   -7.9046   -0.2890    0.0000 C   0  0  0  0  0  0  0  0  0  0  0  0
   -7.1460    1.0050    0.0000 C   0  0  0  0  0  0  0  0  0  0  0  0
   -5.6460    0.9951    0.0000 C   0  0  0  0  0  0  0  0  0  0  0  0
   -4.9046   -0.3089    0.0000 C   0  0  0  0  0  0  0  0  0  0  0  0
   -5.6633   -1.6030    0.0000 C   0  0  0  0  0  0  0  0  0  0  0  0
   -7.1632   -1.5930    0.0000 C   0  0  0  0  0  0  0  0  0  0  0  0
   -7.9219   -2.8870    0.0000 C   0  0  0  0  0  0  0  0  0  0  0  0
   -8.6805   -4.1810    0.0000 F   0  0  0  0  0  0  0  0  0  0  0  0
   -9.2159   -2.1284    0.0000 F   0  0  0  0  0  0  0  0  0  0  0  0
   -6.6278   -3.6456    0.0000 F   0  0  0  0  0  0  0  0  0  0  0  0
   -3.4354   -0.0068    0.0000 N   0  0  0  0  0  0  0  0  0  0  0  0
   -3.2687    1.4839    0.0000 C   0  0  0  0  0  0  0  0  0  0  0  0
   -4.6349    2.1031    0.0000 N   0  0  0  0  0  0  0  0  0  0  0  0
   -1.9647    2.2252    0.0000 C   0  0  0  0  0  0  0  0  0  0  0  0
   -0.4647    2.2152    0.0000 C   0  0  0  0  0  0  0  0  0  0  0  0
   -1.2061    3.5192    0.0000 C   0  0  0  0  0  0  0  0  0  0  0  0
   -0.1950    4.6273    0.0000 O   0  0  0  0  0  0  0  0  0  0  0  0
    1.1713    4.0081    0.0000 C   0  0  0  0  0  0  0  0  0  0  0  0
    1.0046    2.5173    0.0000 C   0  0  0  0  0  0  0  0  0  0  0  0
    2.2122    1.6276    0.0000 C   0  0  0  0  0  0  0  0  0  0  0  0
    3.5865    2.2286    0.0000 C   0  0  0  0  0  0  0  0  0  0  0  0
    3.7532    3.7193    0.0000 C   0  0  0  0  0  0  0  0  0  0  0  0
    2.5456    4.6090    0.0000 C   0  0  0  0  0  0  0  0  0  0  0  0
    4.7942    1.3389    0.0000 O   0  0  0  0  0  0  0  0  0  0  0  0
    4.6275   -0.1518    0.0000 C   0  0  0  0  0  0  0  0  0  0  0  0
    3.2531   -0.7528    0.0000 C   0  0  0  0  0  0  0  0  0  0  0  0
    3.0864   -2.2435    0.0000 C   0  0  0  0  0  0  0  0  0  0  0  0
    4.2940   -3.1333    0.0000 N   0  0  0  0  0  0  0  0  0  0  0  0
    5.6684   -2.5323    0.0000 C   0  0  0  0  0  0  0  0  0  0  0  0
    5.8351   -1.0416    0.0000 C   0  0  0  0  0  0  0  0  0  0  0  0
    7.2094   -0.4406    0.0000 C   0  0  0  0  0  0  0  0  0  0  0  0
    8.4171   -1.3303    0.0000 C   0  0  0  0  0  0  0  0  0  0  0  0
    8.2504   -2.8210    0.0000 C   0  0  0  0  0  0  0  0  0  0  0  0
    9.4580   -3.7107    0.0000 O   0  0  0  0  0  0  0  0  0  0  0  0
    6.8760   -3.4220    0.0000 N   0  0  0  0  0  0  0  0  0  0  0  0
  1  2  2  0
  2  3  1  0
  3  4  2  0
  4  5  1  0
  5  6  2  0
  6  7  1  0
  7  8  1  0
  7  9  1  0
  7 10  1  0
  4 11  1  0
 11 12  1  0
 12 13  2  0
 14 12  1  6
 14 15  1  0
 15 16  1  0
 16 17  1  1
 17 18  1  0
 18 19  2  0
 19 20  1  0
 20 21  2  0
 21 22  1  0
 22 23  2  0
 21 24  1  0
 24 25  1  0
 25 26  2  0
 26 27  1  0
 27 28  2  0
 28 29  1  0
 29 30  2  0
 30 31  1  0
 31 32  1  0
 32 33  1  0
 33 34  2  0
 33 35  1  0
  6  1  1  0
 13  3  1  0
 16 14  1  0
 15 19  1  1
 23 18  1  0
 30 25  1  0
 35 29  1  0
M  END
>  <BrandName>  (242) 


>  <Applicants>  (242) 
BeiGene

>  <CHEMBL_ID>  (242) 
CHEMBL4209157

>  <Canonical_Smiles>  (242) 
c1cc2c(cc1C(F)(F)F)[nH]c(n2)[C@H]3[C@H]4[C@@H]3Oc5c4cc(cc5)Oc6ccnc7c6CCC(=O)N7

>  <Chirality>  (242) 
Single Stereoisomer

>  <First_Approval>  (242) 
nan

>  <Phase>  (242) 
2.0

>  <SC_Patent>  (242) 
nan

>  <Synonyms>  (242) 
BEIGENE-283 | BGB 283 | BGB-283 | LIFIRAFENIB

>  <Withdrawn>  (242) 
nan

>  <Indications>  (242) 
nan

>  <Type>  (242) 
nan

>  <targets_id>  (242) 
nan

>  <Inchi>  (242) 
InChI=1S/C25H17F3N4O3/c26-25(27,28)11-1-4-15-16(9-11)31-24(30-15)21-20-14-10-12(2-5-17(14)35-22(20)21)34-18-7-8-29-23-13(18)3-6-19(33)32-23/h1-2,4-5,7-10,20-22H,3,6H2,(H,30,31)(H,29,32,33)/t20-,21-,22-/m0/s1

>  <stdInchikey>  (242) 
NGFFVZQXSRKHBM-FKBYEOEOSA-N

>  <csid>  (242) 
58145118

>  <Links>  (242) 
|http://www.chemspider.com/Chemical-Structure.58145118.html|https://www.ebi.ac.uk/chembldb/compound/inspect/CHEMBL4209157|https://pubchem.ncbi.nlm.nih.gov/compound/89670174|https://go.drugbank.com/drugs/DB14773|https://www.rcsb.org/ligand/3K3|https://www.ebi.ac.uk/pdbe-srv/pdbechem/chemicalCompound/show/3K3|https://www.guidetopharmacology.org/GRAC/LigandDisplayForward?8958|https://zinc15.docking.org/substances/ZINC000068764621|https://precision.fda.gov/uniisearch/srs/unii/8762XZS5ZF|https://www.bindingdb.org/bind/chemsearch/marvin/MolStructure.jsp?monomerid=50453816

>  <LinkName>  (242) 
|ChemSpider|ChEMBL|PubChem|DrugBank|RCSB|PDBe|Guide to Pharmacology|ZINC|FDA SRS|BindingDB

>  <lig_pdb_ID>  (242) 
3K3

>  <pdb_IDs>  (242) 
4r5y

>  <indicationDB>  (242) 


>  <uniprotId>  (242) 


>  <indicationG2P>  (242) 
None

>  <MW>  (242) 
478.1

>  <HBA>  (242) 
5

>  <HBD>  (242) 
2

>  <NRB>  (242) 
3

>  <TPSA>  (242) 
89.1

>  <LogP>  (242) 
5.3

>  <RoF>  (242) 
1

>  <Melting point>  (242) 
nan

>  <Targets>  (242) 
nan

>  <Kinase families>  (242) 


>  <FDA_approved>  (242) 


$$$$
Doramapimod
     RDKit          2D

 39 43  0  0  0  0  0  0  0  0999 V2000
   -9.1924   -3.4405    0.0000 C   0  0  0  0  0  0  0  0  0  0  0  0
   -8.1957   -2.3196    0.0000 C   0  0  0  0  0  0  0  0  0  0  0  0
   -6.7265   -2.6223    0.0000 C   0  0  0  0  0  0  0  0  0  0  0  0
   -5.7298   -1.5014    0.0000 C   0  0  0  0  0  0  0  0  0  0  0  0
   -6.2021   -0.0777    0.0000 C   0  0  0  0  0  0  0  0  0  0  0  0
   -7.6713    0.2250    0.0000 C   0  0  0  0  0  0  0  0  0  0  0  0
   -8.6680   -0.8959    0.0000 C   0  0  0  0  0  0  0  0  0  0  0  0
   -5.2054    1.0432    0.0000 N   0  0  0  0  0  0  0  0  0  0  0  0
   -3.7126    0.8956    0.0000 C   0  0  0  0  0  0  0  0  0  0  0  0
   -3.1110    2.2697    0.0000 C   0  0  0  0  0  0  0  0  0  0  0  0
   -4.2320    3.2665    0.0000 C   0  0  0  0  0  0  0  0  0  0  0  0
   -5.5263    2.5084    0.0000 N   0  0  0  0  0  0  0  0  0  0  0  0
   -4.0844    4.7592    0.0000 C   0  0  0  0  0  0  0  0  0  0  0  0
   -5.5772    4.9068    0.0000 C   0  0  0  0  0  0  0  0  0  0  0  0
   -2.5917    4.6117    0.0000 C   0  0  0  0  0  0  0  0  0  0  0  0
   -3.9369    6.2519    0.0000 C   0  0  0  0  0  0  0  0  0  0  0  0
   -2.9546   -0.3987    0.0000 N   0  0  0  0  0  0  0  0  0  0  0  0
   -1.4546   -0.3894    0.0000 C   0  0  0  0  0  0  0  0  0  0  0  0
   -0.7127    0.9142    0.0000 O   0  0  0  0  0  0  0  0  0  0  0  0
   -0.6966   -1.6838    0.0000 N   0  0  0  0  0  0  0  0  0  0  0  0
    0.8034   -1.6745    0.0000 C   0  0  0  0  0  0  0  0  0  0  0  0
    1.5453   -0.3708    0.0000 C   0  0  0  0  0  0  0  0  0  0  0  0
    3.0453   -0.3615    0.0000 C   0  0  0  0  0  0  0  0  0  0  0  0
    3.8033   -1.6559    0.0000 C   0  0  0  0  0  0  0  0  0  0  0  0
    3.0614   -2.9596    0.0000 C   0  0  0  0  0  0  0  0  0  0  0  0
    1.5614   -2.9689    0.0000 C   0  0  0  0  0  0  0  0  0  0  0  0
    0.8195   -4.2725    0.0000 C   0  0  0  0  0  0  0  0  0  0  0  0
    1.5775   -5.5669    0.0000 C   0  0  0  0  0  0  0  0  0  0  0  0
    3.0775   -5.5576    0.0000 C   0  0  0  0  0  0  0  0  0  0  0  0
    3.8194   -4.2539    0.0000 C   0  0  0  0  0  0  0  0  0  0  0  0
    5.3033   -1.6466    0.0000 O   0  0  0  0  0  0  0  0  0  0  0  0
    6.0452   -0.3429    0.0000 C   0  0  0  0  0  0  0  0  0  0  0  0
    7.5452   -0.3336    0.0000 C   0  0  0  0  0  0  0  0  0  0  0  0
    8.2871    0.9700    0.0000 N   0  0  0  0  0  0  0  0  0  0  0  0
    9.7871    0.9793    0.0000 C   0  0  0  0  0  0  0  0  0  0  0  0
   10.5290    2.2830    0.0000 C   0  0  0  0  0  0  0  0  0  0  0  0
    9.7710    3.5774    0.0000 O   0  0  0  0  0  0  0  0  0  0  0  0
    8.2710    3.5681    0.0000 C   0  0  0  0  0  0  0  0  0  0  0  0
    7.5291    2.2644    0.0000 C   0  0  0  0  0  0  0  0  0  0  0  0
  1  2  1  0
  2  3  2  0
  3  4  1  0
  4  5  2  0
  5  6  1  0
  6  7  2  0
  5  8  1  0
  8  9  1  0
  9 10  2  0
 10 11  1  0
 11 12  2  0
 11 13  1  0
 13 14  1  0
 13 15  1  0
 13 16  1  0
  9 17  1  0
 17 18  1  0
 18 19  2  0
 18 20  1  0
 20 21  1  0
 21 22  2  0
 22 23  1  0
 23 24  2  0
 24 25  1  0
 25 26  2  0
 26 27  1  0
 27 28  2  0
 28 29  1  0
 29 30  2  0
 24 31  1  0
 31 32  1  0
 32 33  1  0
 33 34  1  0
 34 35  1  0
 35 36  1  0
 36 37  1  0
 37 38  1  0
 38 39  1  0
  7  2  1  0
 12  8  1  0
 26 21  1  0
 30 25  1  0
 39 34  1  0
M  END
>  <BrandName>  (243) 


>  <Applicants>  (243) 
Boehringer Ingelheim

>  <CHEMBL_ID>  (243) 
CHEMBL103667

>  <Canonical_Smiles>  (243) 
Cc1ccc(cc1)n2c(cc(n2)C(C)(C)C)NC(=O)Nc3ccc(c4c3cccc4)OCCN5CCOCC5

>  <Chirality>  (243) 
Achiral Molecule

>  <First_Approval>  (243) 
nan

>  <Phase>  (243) 
2.0

>  <SC_Patent>  (243) 
nan

>  <Synonyms>  (243) 
BIRB 796 BS | BIRB-796 | BIRB-796 BS | DORAMAPIMOD

>  <Withdrawn>  (243) 
nan

>  <Indications>  (243) 
nan

>  <Type>  (243) 
2

>  <targets_id>  (243) 
Q16539

>  <Inchi>  (243) 
InChI=1S/C31H37N5O3/c1-22-9-11-23(12-10-22)36-29(21-28(34-36)31(2,3)4)33-30(37)32-26-13-14-27(25-8-6-5-7-24(25)26)39-20-17-35-15-18-38-19-16-35/h5-14,21H,15-20H2,1-4H3,(H2,32,33,37)

>  <stdInchikey>  (243) 
MVCOAUNKQVWQHZ-UHFFFAOYSA-N

>  <csid>  (243) 
137746

>  <Links>  (243) 
|http://www.chemspider.com/Chemical-Structure.137746.html|https://www.ebi.ac.uk/chembldb/compound/inspect/CHEMBL103667|https://pubchem.ncbi.nlm.nih.gov/compound/156422|https://go.drugbank.com/drugs/DB03044|https://www.rcsb.org/ligand/B96|https://www.ebi.ac.uk/pdbe-srv/pdbechem/chemicalCompound/show/B96|https://www.guidetopharmacology.org/GRAC/LigandDisplayForward?5668|https://zinc15.docking.org/substances/ZINC000024044436|https://precision.fda.gov/uniisearch/srs/unii/HO1A8B3YVV|https://www.bindingdb.org/bind/chemsearch/marvin/MolStructure.jsp?monomerid=13533

>  <LinkName>  (243) 
|ChemSpider|ChEMBL|PubChem|DrugBank|RCSB|PDBe|Guide to Pharmacology|ZINC|FDA SRS|BindingDB

>  <lig_pdb_ID>  (243) 
B96

>  <pdb_IDs>  (243) 
1kv2 3fzs 3npc 4jvg 4twn 5n66 6gtt 8ygw 9cj4

>  <indicationDB>  (243) 


>  <uniprotId>  (243) 


>  <indicationG2P>  (243) 
None

>  <MW>  (243) 
527.3

>  <HBA>  (243) 
6

>  <HBD>  (243) 
2

>  <NRB>  (243) 
7

>  <TPSA>  (243) 
80.7

>  <LogP>  (243) 
6.0

>  <RoF>  (243) 
2

>  <Melting point>  (243) 
nan

>  <Targets>  (243) 
MAPK14

>  <Kinase families>  (243) 
CMGC

>  <FDA_approved>  (243) 


$$$$
Zilurgisertib
     RDKit          2D

 37 43  0  0  0  0  0  0  0  0999 V2000
    4.2211   -4.3643    0.0000 N   0  0  0  0  0  0  0  0  0  0  0  0
    2.9981   -3.4959    0.0000 C   0  0  0  0  0  0  0  0  0  0  0  0
    1.6345   -4.1208    0.0000 N   0  0  0  0  0  0  0  0  0  0  0  0
    0.4115   -3.2523    0.0000 C   0  0  0  0  0  0  0  0  0  0  0  0
    0.5521   -1.7589    0.0000 C   0  0  0  0  0  0  0  0  0  0  0  0
   -0.6709   -0.8904    0.0000 C   0  0  0  0  0  0  0  0  0  0  0  0
   -0.5303    0.6030    0.0000 C   0  0  0  0  0  0  0  0  0  0  0  0
   -1.7533    1.4715    0.0000 C   0  0  0  0  0  0  0  0  0  0  0  0
   -3.1169    0.8465    0.0000 C   0  0  0  0  0  0  0  0  0  0  0  0
   -4.3399    1.7150    0.0000 C   0  0  0  0  0  0  0  0  0  0  0  0
   -3.6041    3.0221    0.0000 C   0  0  0  0  0  0  0  0  0  0  0  0
   -5.1040    3.0059    0.0000 C   0  0  0  0  0  0  0  0  0  0  0  0
   -6.5677    2.6781    0.0000 C   0  0  0  0  0  0  0  0  0  0  0  0
   -6.7084    1.1847    0.0000 N   0  0  0  0  0  0  0  0  0  0  0  0
   -7.9992    0.4207    0.0000 C   0  0  0  0  0  0  0  0  0  0  0  0
   -9.3063    1.1566    0.0000 C   0  0  0  0  0  0  0  0  0  0  0  0
  -10.5971    0.3925    0.0000 C   0  0  0  0  0  0  0  0  0  0  0  0
  -10.5809   -1.1074    0.0000 O   0  0  0  0  0  0  0  0  0  0  0  0
   -9.2738   -1.8433    0.0000 C   0  0  0  0  0  0  0  0  0  0  0  0
   -7.9829   -1.0792    0.0000 C   0  0  0  0  0  0  0  0  0  0  0  0
   -5.3315    0.5895    0.0000 C   0  0  0  0  0  0  0  0  0  0  0  0
   -3.2576   -0.6469    0.0000 C   0  0  0  0  0  0  0  0  0  0  0  0
   -2.0346   -1.5153    0.0000 C   0  0  0  0  0  0  0  0  0  0  0  0
    1.9157   -1.1340    0.0000 C   0  0  0  0  0  0  0  0  0  0  0  0
    3.1387   -2.0025    0.0000 C   0  0  0  0  0  0  0  0  0  0  0  0
    4.5023   -1.3775    0.0000 C   0  0  0  0  0  0  0  0  0  0  0  0
    5.7253   -2.2460    0.0000 O   0  0  0  0  0  0  0  0  0  0  0  0
    4.6430    0.1158    0.0000 N   0  0  0  0  0  0  0  0  0  0  0  0
    6.0066    0.7408    0.0000 C   0  0  0  0  0  0  0  0  0  0  0  0
    7.2296   -0.1277    0.0000 C   0  0  0  0  0  0  0  0  0  0  0  0
    8.5932    0.4972    0.0000 C   0  0  0  0  0  0  0  0  0  0  0  0
    8.7338    1.9906    0.0000 C   0  0  0  0  0  0  0  0  0  0  0  0
   10.0975    2.6155    0.0000 O   0  0  0  0  0  0  0  0  0  0  0  0
    7.5108    2.8591    0.0000 C   0  0  0  0  0  0  0  0  0  0  0  0
    6.1472    2.2342    0.0000 C   0  0  0  0  0  0  0  0  0  0  0  0
    7.9657    1.6941    0.0000 C   0  0  0  0  0  0  0  0  0  0  0  0
    6.7327    1.1290    0.0000 C   0  0  0  0  0  0  0  0  0  0  0  0
  1  2  1  0
  2  3  2  0
  3  4  1  0
  4  5  2  0
  5  6  1  0
  6  7  2  0
  7  8  1  0
  8  9  2  0
 10  9  1  6
 10 11  1  0
 12 11  1  1
 12 13  1  0
 13 14  1  0
 14 15  1  0
 15 16  1  0
 16 17  1  0
 17 18  1  0
 18 19  1  0
 19 20  1  0
 14 21  1  0
  9 22  1  0
 22 23  2  0
  5 24  1  0
 24 25  2  0
 25 26  1  0
 26 27  2  0
 26 28  1  0
 28 29  1  0
 29 30  1  0
 30 31  1  0
 31 32  1  0
 32 33  1  0
 32 34  1  0
 34 35  1  0
 32 36  1  0
 36 37  1  0
 25  2  1  0
 35 29  1  0
 23  6  1  0
 37 29  1  0
 12 10  1  0
 20 15  1  0
 21 10  1  0
M  END
>  <BrandName>  (244) 


>  <Applicants>  (244) 
('Incyte Corporation',)

>  <CHEMBL_ID>  (244) 
CHEMBL5314579

>  <Canonical_Smiles>  (244) 
Nc1ncc(-c2ccc([C@@]34C[C@@H]3CN(C3CCOCC3)C4)cc2)cc1C(=O)NC12CCC(O)(CC1)CC2

>  <Chirality>  (244) 
Unknown

>  <First_Approval>  (244) 
nan

>  <Phase>  (244) 
2.0

>  <SC_Patent>  (244) 
nan

>  <Synonyms>  (244) 
INCB-000928 | INCB000928 | NBU928 | ZILURGISERTIB

>  <Withdrawn>  (244) 
nan

>  <Indications>  (244) 
nan

>  <Type>  (244) 
nan

>  <targets_id>  (244) 
nan

>  <Inchi>  (244) 
InChI=1S/C30H38N4O3/c31-26-25(27(35)33-28-7-10-29(36,11-8-28)12-9-28)15-21(17-32-26)20-1-3-22(4-2-20)30-16-23(30)18-34(19-30)24-5-13-37-14-6-24/h1-4,15,17,23-24,36H,5-14,16,18-19H2,(H2,31,32)(H,33,35)/t23-,28?,29?,30+/m1/s1

>  <stdInchikey>  (244) 
KPRPFTOLWQQUAV-OCVAFRRMSA-N

>  <csid>  (244) 
115010438

>  <Links>  (244) 
|http://www.chemspider.com/Chemical-Structure.115010438.html|https://www.ebi.ac.uk/chembldb/compound/inspect/CHEMBL5314579|https://pubchem.ncbi.nlm.nih.gov/compound/138628908|https://go.drugbank.com/drugs/DB18152|https://www.bindingdb.org/bind/chemsearch/marvin/MolStructure.jsp?monomerid=451802

>  <LinkName>  (244) 
|ChemSpider|ChEMBL|PubChem|DrugBank|BindingDB

>  <lig_pdb_ID>  (244) 


>  <pdb_IDs>  (244) 


>  <indicationDB>  (244) 


>  <uniprotId>  (244) 


>  <indicationG2P>  (244) 


>  <MW>  (244) 
502.3

>  <HBA>  (244) 
6

>  <HBD>  (244) 
3

>  <NRB>  (244) 
5

>  <TPSA>  (244) 
100.7

>  <LogP>  (244) 
3.7

>  <RoF>  (244) 
1

>  <Melting point>  (244) 
nan

>  <Targets>  (244) 
nan

>  <Kinase families>  (244) 


>  <FDA_approved>  (244) 


$$$$
Sovesudil
     RDKit          2D

 30 32  0  0  0  0  0  0  0  0999 V2000
   -7.6326   -5.1092    0.0000 C   0  0  0  0  0  0  0  0  0  0  0  0
   -7.2469   -3.6596    0.0000 C   0  0  0  0  0  0  0  0  0  0  0  0
   -5.7987   -3.2689    0.0000 C   0  0  0  0  0  0  0  0  0  0  0  0
   -5.4130   -1.8193    0.0000 O   0  0  0  0  0  0  0  0  0  0  0  0
   -3.9648   -1.4285    0.0000 C   0  0  0  0  0  0  0  0  0  0  0  0
   -2.9022   -2.4874    0.0000 O   0  0  0  0  0  0  0  0  0  0  0  0
   -3.5790    0.0210    0.0000 C   0  0  0  0  0  0  0  0  0  0  0  0
   -4.6415    1.0798    0.0000 C   0  0  0  0  0  0  0  0  0  0  0  0
   -4.2558    2.5294    0.0000 C   0  0  0  0  0  0  0  0  0  0  0  0
   -2.8076    2.9201    0.0000 C   0  0  0  0  0  0  0  0  0  0  0  0
   -1.7451    1.8613    0.0000 C   0  0  0  0  0  0  0  0  0  0  0  0
   -2.1308    0.4118    0.0000 C   0  0  0  0  0  0  0  0  0  0  0  0
   -0.2969    2.2521    0.0000 C   0  0  0  0  0  0  0  0  0  0  0  0
    0.7656    1.1933    0.0000 C   0  0  0  0  0  0  0  0  0  0  0  0
    2.2138    1.5840    0.0000 C   0  0  0  0  0  0  0  0  0  0  0  0
    2.5995    3.0336    0.0000 C   0  0  0  0  0  0  0  0  0  0  0  0
    1.5370    4.0924    0.0000 C   0  0  0  0  0  0  0  0  0  0  0  0
    0.0888    3.7016    0.0000 C   0  0  0  0  0  0  0  0  0  0  0  0
   -0.9737    4.7605    0.0000 C   0  0  0  0  0  0  0  0  0  0  0  0
   -0.5880    6.2100    0.0000 N   0  0  0  0  0  0  0  0  0  0  0  0
    3.2763    0.5252    0.0000 C   0  0  0  0  0  0  0  0  0  0  0  0
    4.7245    0.9159    0.0000 O   0  0  0  0  0  0  0  0  0  0  0  0
    2.8906   -0.9244    0.0000 N   0  0  0  0  0  0  0  0  0  0  0  0
    3.9531   -1.9832    0.0000 C   0  0  0  0  0  0  0  0  0  0  0  0
    3.5674   -3.4327    0.0000 C   0  0  0  0  0  0  0  0  0  0  0  0
    4.6299   -4.4916    0.0000 C   0  0  0  0  0  0  0  0  0  0  0  0
    6.0781   -4.1008    0.0000 N   0  0  0  0  0  0  0  0  0  0  0  0
    6.4638   -2.6512    0.0000 C   0  0  0  0  0  0  0  0  0  0  0  0
    5.4013   -1.5924    0.0000 C   0  0  0  0  0  0  0  0  0  0  0  0
    5.7870   -0.1429    0.0000 F   0  0  0  0  0  0  0  0  0  0  0  0
  1  2  1  0
  2  3  1  0
  3  4  1  0
  4  5  1  0
  5  6  2  0
  5  7  1  0
  7  8  2  0
  8  9  1  0
  9 10  2  0
 10 11  1  0
 11 12  2  0
 11 13  1  0
 13 14  2  0
 14 15  1  0
 15 16  2  0
 16 17  1  0
 17 18  2  0
 18 19  1  0
 19 20  1  0
 15 21  1  0
 21 22  2  0
 21 23  1  0
 23 24  1  0
 24 25  2  0
 25 26  1  0
 26 27  2  0
 27 28  1  0
 28 29  2  0
 29 30  1  0
 12  7  1  0
 18 13  1  0
 29 24  1  0
M  END
>  <BrandName>  (245) 


>  <Applicants>  (245) 
('',)

>  <CHEMBL_ID>  (245) 
CHEMBL3545073

>  <Canonical_Smiles>  (245) 
CCCOC(=O)c1cccc(c1)c2cc(ccc2CN)C(=O)Nc3ccncc3F

>  <Chirality>  (245) 
Single Stereoisomer

>  <First_Approval>  (245) 
nan

>  <Phase>  (245) 
2.0

>  <SC_Patent>  (245) 
nan

>  <Synonyms>  (245) 
PHP-201|AMA-0076||PHP201

>  <Withdrawn>  (245) 
nan

>  <Indications>  (245) 
nan

>  <Type>  (245) 
nan

>  <targets_id>  (245) 
nan

>  <Inchi>  (245) 
InChI=1S/C23H22FN3O3/c1-2-10-30-23(29)17-5-3-4-15(11-17)19-12-16(6-7-18(19)13-25)22(28)27-21-8-9-26-14-20(21)24/h3-9,11-12,14H,2,10,13,25H2,1H3,(H,26,27,28)

>  <stdInchikey>  (245) 
PNWBYIFLWUCWKS-UHFFFAOYSA-N

>  <csid>  (245) 
30840182

>  <Links>  (245) 
|http://www.chemspider.com/Chemical-Structure.30840182.html|https://www.ebi.ac.uk/chembldb/compound/inspect/CHEMBL2440750|https://pubchem.ncbi.nlm.nih.gov/compound/68245749|https://www.guidetopharmacology.org/GRAC/LigandDisplayForward?10695|https://precision.fda.gov/uniisearch/srs/unii/C23O3R93BM|https://www.bindingdb.org/bind/chemsearch/marvin/MolStructure.jsp?monomerid=50442825

>  <LinkName>  (245) 
|ChemSpider|ChEMBL|PubChem|Guide to Pharmacology|FDA SRS|BindingDB

>  <lig_pdb_ID>  (245) 


>  <pdb_IDs>  (245) 


>  <indicationDB>  (245) 


>  <uniprotId>  (245) 


>  <indicationG2P>  (245) 
None

>  <MW>  (245) 
407.2

>  <HBA>  (245) 
5

>  <HBD>  (245) 
2

>  <NRB>  (245) 
7

>  <TPSA>  (245) 
94.3

>  <LogP>  (245) 
4.2

>  <RoF>  (245) 
0

>  <Melting point>  (245) 
nan

>  <Targets>  (245) 
nan

>  <Kinase families>  (245) 


>  <FDA_approved>  (245) 


$$$$
Sonolisib
     RDKit          2D

 38 41  0  0  0  0  0  0  0  0999 V2000
   -5.1358    2.9700    0.0000 C   0  0  0  0  0  0  0  0  0  0  0  0
   -4.5258    1.5997    0.0000 C   0  0  0  0  0  0  0  0  0  0  0  0
   -5.4075    0.3862    0.0000 O   0  0  0  0  0  0  0  0  0  0  0  0
   -3.0340    1.4429    0.0000 O   0  0  0  0  0  0  0  0  0  0  0  0
   -2.4239    0.0725    0.0000 C   0  0  0  0  0  0  0  0  0  0  0  0
   -3.3056   -1.1410    0.0000 C   0  0  0  0  0  0  0  0  0  0  0  0
   -2.6955   -2.5113    0.0000 C   0  0  0  0  0  0  0  0  0  0  0  0
   -1.2037   -2.6681    0.0000 C   0  0  0  0  0  0  0  0  0  0  0  0
   -0.8919   -4.1353    0.0000 C   0  0  0  0  0  0  0  0  0  0  0  0
   -2.1909   -4.8853    0.0000 C   0  0  0  0  0  0  0  0  0  0  0  0
   -3.3056   -3.8816    0.0000 C   0  0  0  0  0  0  0  0  0  0  0  0
   -4.7729   -4.1934    0.0000 O   0  0  0  0  0  0  0  0  0  0  0  0
   -0.3220   -1.4546    0.0000 C   0  0  0  0  0  0  0  0  0  0  0  0
   -0.9321   -0.0843    0.0000 C   0  0  0  0  0  0  0  0  0  0  0  0
   -0.0504    1.1292    0.0000 C   0  0  0  0  0  0  0  0  0  0  0  0
   -0.6605    2.4996    0.0000 C   0  0  0  0  0  0  0  0  0  0  0  0
    0.2212    3.7131    0.0000 O   0  0  0  0  0  0  0  0  0  0  0  0
    1.7130    3.5562    0.0000 C   0  0  0  0  0  0  0  0  0  0  0  0
    2.5947    4.7698    0.0000 O   0  0  0  0  0  0  0  0  0  0  0  0
    2.3231    2.1859    0.0000 C   0  0  0  0  0  0  0  0  0  0  0  0
    3.8148    2.0291    0.0000 C   0  0  0  0  0  0  0  0  0  0  0  0
    4.4249    0.6588    0.0000 N   0  0  0  0  0  0  0  0  0  0  0  0
    5.9167    0.5020    0.0000 C   0  0  0  0  0  0  0  0  0  0  0  0
    6.5268   -0.8684    0.0000 C   0  0  0  0  0  0  0  0  0  0  0  0
    8.0186   -1.0252    0.0000 C   0  0  0  0  0  0  0  0  0  0  0  0
    3.5432   -0.5547    0.0000 C   0  0  0  0  0  0  0  0  0  0  0  0
    4.1533   -1.9251    0.0000 C   0  0  0  0  0  0  0  0  0  0  0  0
    3.2716   -3.1386    0.0000 C   0  0  0  0  0  0  0  0  0  0  0  0
    1.4414    0.9724    0.0000 C   0  0  0  0  0  0  0  0  0  0  0  0
    2.0514   -0.3979    0.0000 C   0  0  0  0  0  0  0  0  0  0  0  0
    1.1697   -1.6114    0.0000 C   0  0  0  0  0  0  0  0  0  0  0  0
    1.7798   -2.9818    0.0000 O   0  0  0  0  0  0  0  0  0  0  0  0
    2.8005   -0.6706    0.0000 O   0  0  0  0  0  0  0  0  0  0  0  0
   -2.1523    2.6564    0.0000 C   0  0  0  0  0  0  0  0  0  0  0  0
   -2.7624    4.0267    0.0000 O   0  0  0  0  0  0  0  0  0  0  0  0
   -4.2541    4.1835    0.0000 C   0  0  0  0  0  0  0  0  0  0  0  0
   -1.5422    1.2860    0.0000 C   0  0  0  0  0  0  0  0  0  0  0  0
   -4.1955   -2.5113    0.0000 C   0  0  0  0  0  0  0  0  0  0  0  0
  1  2  1  0
  2  3  2  0
  2  4  1  0
  5  4  1  1
  5  6  1  0
  6  7  1  0
  7  8  1  0
  8  9  1  6
  9 10  1  0
 10 11  1  0
 11 12  2  0
  8 13  1  0
 13 14  2  0
 14 15  1  0
 15 16  1  0
 16 17  1  0
 17 18  1  0
 18 19  2  0
 18 20  1  0
 20 21  2  0
 21 22  1  0
 22 23  1  0
 23 24  1  0
 24 25  2  0
 22 26  1  0
 26 27  1  0
 27 28  2  0
 20 29  1  0
 29 30  2  0
 30 31  1  0
 31 32  2  0
 30 33  1  0
 16 34  1  1
 34 35  1  0
 35 36  1  0
 15 37  1  6
  7 38  1  6
 14  5  1  0
 11  7  1  0
 31 13  1  0
 29 15  1  0
M  END
>  <BrandName>  (246) 


>  <Applicants>  (246) 
Cascadian Therapeutics

>  <CHEMBL_ID>  (246) 
CHEMBL411907

>  <Canonical_Smiles>  (246) 
CC(=O)O[C@@H]1C[C@]2([C@@H](CCC2=O)C3=C1[C@]4([C@H](OC(=O)/C(=C/N(CC=C)CC=C)/C4=C(C3=O)O)COC)C)C

>  <Chirality>  (246) 
Single Stereoisomer

>  <First_Approval>  (246) 
nan

>  <Phase>  (246) 
2.0

>  <SC_Patent>  (246) 
nan

>  <Synonyms>  (246) 
PX-866 | SONOLISIB

>  <Withdrawn>  (246) 
nan

>  <Indications>  (246) 
nan

>  <Type>  (246) 
nan

>  <targets_id>  (246) 
P42336|P42338|P48736

>  <Inchi>  (246) 
InChI=1S/C29H35NO8/c1-7-11-30(12-8-2)14-17-23-26(34)25(33)22-18-9-10-20(32)28(18,4)13-19(37-16(3)31)24(22)29(23,5)21(15-36-6)38-27(17)35/h7-8,14,18-19,21,34H,1-2,9-13,15H2,3-6H3/b17-14+/t18-,19+,21+,28-,29-/m0/s1

>  <stdInchikey>  (246) 
QIUASFSNWYMDFS-NILGECQDSA-N

>  <csid>  (246) 
8025448

>  <Links>  (246) 
|http://www.chemspider.com/Chemical-Structure.8025448.html|https://www.ebi.ac.uk/chembldb/compound/inspect/CHEMBL411907|https://pubchem.ncbi.nlm.nih.gov/compound/9849735|https://go.drugbank.com/drugs/DB12601|https://www.guidetopharmacology.org/GRAC/LigandDisplayForward?7941|https://zinc15.docking.org/substances/ZINC000029134545|https://precision.fda.gov/uniisearch/srs/unii/987796874T

>  <LinkName>  (246) 
|ChemSpider|ChEMBL|PubChem|DrugBank|Guide to Pharmacology|ZINC|FDA SRS

>  <lig_pdb_ID>  (246) 


>  <pdb_IDs>  (246) 


>  <indicationDB>  (246) 


>  <uniprotId>  (246) 


>  <indicationG2P>  (246) 
None

>  <MW>  (246) 
525.2

>  <HBA>  (246) 
9

>  <HBD>  (246) 
1

>  <NRB>  (246) 
8

>  <TPSA>  (246) 
119.4

>  <LogP>  (246) 
3.1

>  <RoF>  (246) 
1

>  <Melting point>  (246) 
nan

>  <Targets>  (246) 
PIK3CA; PIK3CB; PIK3CG

>  <Kinase families>  (246) 
Atypical

>  <FDA_approved>  (246) 


$$$$
Paxalisib
     RDKit          2D

 28 32  0  0  0  0  0  0  0  0999 V2000
   -4.7800    0.4034    0.0000 C   0  0  0  0  0  0  0  0  0  0  0  0
   -4.3882    1.8513    0.0000 C   0  0  0  0  0  0  0  0  0  0  0  0
   -5.8821    1.9857    0.0000 C   0  0  0  0  0  0  0  0  0  0  0  0
   -4.5152    3.3459    0.0000 O   0  0  0  0  0  0  0  0  0  0  0  0
   -3.2843    4.2032    0.0000 C   0  0  0  0  0  0  0  0  0  0  0  0
   -1.9264    3.5659    0.0000 C   0  0  0  0  0  0  0  0  0  0  0  0
   -1.7994    2.0713    0.0000 N   0  0  0  0  0  0  0  0  0  0  0  0
   -3.0303    1.2140    0.0000 C   0  0  0  0  0  0  0  0  0  0  0  0
   -2.5953   -0.2216    0.0000 N   0  0  0  0  0  0  0  0  0  0  0  0
   -1.0956   -0.2515    0.0000 C   0  0  0  0  0  0  0  0  0  0  0  0
   -0.1144   -1.3860    0.0000 C   0  0  0  0  0  0  0  0  0  0  0  0
   -0.6063   -2.8031    0.0000 N   0  0  0  0  0  0  0  0  0  0  0  0
   -2.0794   -3.0856    0.0000 C   0  0  0  0  0  0  0  0  0  0  0  0
   -2.5713   -4.5027    0.0000 C   0  0  0  0  0  0  0  0  0  0  0  0
   -1.5900   -5.6372    0.0000 O   0  0  0  0  0  0  0  0  0  0  0  0
   -0.1169   -5.3546    0.0000 C   0  0  0  0  0  0  0  0  0  0  0  0
    0.3750   -3.9376    0.0000 C   0  0  0  0  0  0  0  0  0  0  0  0
    1.3588   -1.1035    0.0000 N   0  0  0  0  0  0  0  0  0  0  0  0
    1.8507    0.3136    0.0000 C   0  0  0  0  0  0  0  0  0  0  0  0
    3.3238    0.5961    0.0000 C   0  0  0  0  0  0  0  0  0  0  0  0
    4.3051   -0.5384    0.0000 C   0  0  0  0  0  0  0  0  0  0  0  0
    5.7782   -0.2559    0.0000 N   0  0  0  0  0  0  0  0  0  0  0  0
    6.2701    1.1612    0.0000 C   0  0  0  0  0  0  0  0  0  0  0  0
    7.7433    1.4437    0.0000 N   0  0  0  0  0  0  0  0  0  0  0  0
    5.2889    2.2957    0.0000 N   0  0  0  0  0  0  0  0  0  0  0  0
    3.8157    2.0132    0.0000 C   0  0  0  0  0  0  0  0  0  0  0  0
    0.8694    1.4481    0.0000 N   0  0  0  0  0  0  0  0  0  0  0  0
   -0.6037    1.1656    0.0000 C   0  0  0  0  0  0  0  0  0  0  0  0
  1  2  1  0
  2  3  1  0
  2  4  1  0
  4  5  1  0
  5  6  1  0
  6  7  1  0
  7  8  1  0
  8  9  2  0
  9 10  1  0
 10 11  2  0
 11 12  1  0
 12 13  1  0
 13 14  1  0
 14 15  1  0
 15 16  1  0
 16 17  1  0
 11 18  1  0
 18 19  2  0
 19 20  1  0
 20 21  2  0
 21 22  1  0
 22 23  2  0
 23 24  1  0
 23 25  1  0
 25 26  2  0
 19 27  1  0
 27 28  2  0
  8  2  1  0
 28 10  1  0
 28  7  1  0
 17 12  1  0
 26 20  1  0
M  END
>  <BrandName>  (247) 


>  <Applicants>  (247) 
Genentech

>  <CHEMBL_ID>  (247) 
CHEMBL3813842

>  <Canonical_Smiles>  (247) 
CC1(C)OCCn2c1nc1c(N3CCOCC3)nc(-c3cnc(N)nc3)nc12

>  <Chirality>  (247) 
Achiral Molecule

>  <First_Approval>  (247) 
nan

>  <Phase>  (247) 
2.0

>  <SC_Patent>  (247) 
nan

>  <Synonyms>  (247) 
G-02441729 | G02441729 | GDC-0084 | GDC0084 | PAXALISIB | RG-7666

>  <Withdrawn>  (247) 
{''}

>  <Indications>  (247) 
nan

>  <Type>  (247) 
nan

>  <targets_id>  (247) 
nan

>  <Inchi>  (247) 
InChI=1S/C18H22N8O2/c1-18(2)16-22-12-14(25-3-6-27-7-4-25)23-13(11-9-20-17(19)21-10-11)24-15(12)26(16)5-8-28-18/h9-10H,3-8H2,1-2H3,(H2,19,20,21)

>  <stdInchikey>  (247) 
LGWACEZVCMBSKW-UHFFFAOYSA-N

>  <csid>  (247) 
57251291

>  <Links>  (247) 
|http://www.chemspider.com/Chemical-Structure.57251291.html|https://www.ebi.ac.uk/chembldb/compound/inspect/CHEMBL3813842|https://pubchem.ncbi.nlm.nih.gov/compound/57384863|https://go.drugbank.com/drugs/DB15186|https://www.guidetopharmacology.org/GRAC/LigandDisplayForward?10097|https://zinc15.docking.org/substances/ZINC000149645112|https://precision.fda.gov/uniisearch/srs/unii/P5DKZ70636|https://www.bindingdb.org/bind/chemsearch/marvin/MolStructure.jsp?monomerid=50177662

>  <LinkName>  (247) 
|ChemSpider|ChEMBL|PubChem|DrugBank|Guide to Pharmacology|ZINC|FDA SRS|BindingDB

>  <lig_pdb_ID>  (247) 


>  <pdb_IDs>  (247) 


>  <indicationDB>  (247) 


>  <uniprotId>  (247) 


>  <indicationG2P>  (247) 
None

>  <MW>  (247) 
382.2

>  <HBA>  (247) 
10

>  <HBD>  (247) 
1

>  <NRB>  (247) 
2

>  <TPSA>  (247) 
117.1

>  <LogP>  (247) 
1.0

>  <RoF>  (247) 
0

>  <Melting point>  (247) 
nan

>  <Targets>  (247) 
nan

>  <Kinase families>  (247) 


>  <FDA_approved>  (247) 


$$$$
Omipalisib
     RDKit          2D

 36 40  0  0  0  0  0  0  0  0999 V2000
   -4.6358   -4.0183    0.0000 C   0  0  0  0  0  0  0  0  0  0  0  0
   -3.4090   -4.8814    0.0000 O   0  0  0  0  0  0  0  0  0  0  0  0
   -2.0481   -4.2506    0.0000 C   0  0  0  0  0  0  0  0  0  0  0  0
   -1.9140   -2.7566    0.0000 C   0  0  0  0  0  0  0  0  0  0  0  0
   -0.5531   -2.1257    0.0000 C   0  0  0  0  0  0  0  0  0  0  0  0
    0.6737   -2.9889    0.0000 C   0  0  0  0  0  0  0  0  0  0  0  0
    0.5396   -4.4829    0.0000 C   0  0  0  0  0  0  0  0  0  0  0  0
   -0.8213   -5.1137    0.0000 N   0  0  0  0  0  0  0  0  0  0  0  0
    2.0346   -2.3580    0.0000 C   0  0  0  0  0  0  0  0  0  0  0  0
    3.2614   -3.2211    0.0000 C   0  0  0  0  0  0  0  0  0  0  0  0
    4.6222   -2.5903    0.0000 C   0  0  0  0  0  0  0  0  0  0  0  0
    4.7563   -1.0963    0.0000 C   0  0  0  0  0  0  0  0  0  0  0  0
    3.5296   -0.2332    0.0000 C   0  0  0  0  0  0  0  0  0  0  0  0
    2.1687   -0.8640    0.0000 C   0  0  0  0  0  0  0  0  0  0  0  0
    3.6637    1.2608    0.0000 C   0  0  0  0  0  0  0  0  0  0  0  0
    5.0246    1.8917    0.0000 C   0  0  0  0  0  0  0  0  0  0  0  0
    6.2513    1.0286    0.0000 C   0  0  0  0  0  0  0  0  0  0  0  0
    6.1172   -0.4654    0.0000 N   0  0  0  0  0  0  0  0  0  0  0  0
    2.4369    2.1240    0.0000 C   0  0  0  0  0  0  0  0  0  0  0  0
    2.5710    3.6180    0.0000 C   0  0  0  0  0  0  0  0  0  0  0  0
    1.3442    4.4811    0.0000 C   0  0  0  0  0  0  0  0  0  0  0  0
   -0.0167    3.8502    0.0000 N   0  0  0  0  0  0  0  0  0  0  0  0
   -0.1508    2.3562    0.0000 N   0  0  0  0  0  0  0  0  0  0  0  0
    1.0760    1.4931    0.0000 C   0  0  0  0  0  0  0  0  0  0  0  0
   -3.1408   -1.8935    0.0000 N   0  0  0  0  0  0  0  0  0  0  0  0
   -3.0067   -0.3995    0.0000 S   0  0  0  0  0  0  0  0  0  0  0  0
   -1.5127   -0.5336    0.0000 O   0  0  0  0  0  0  0  0  0  0  0  0
   -4.5007   -0.2654    0.0000 O   0  0  0  0  0  0  0  0  0  0  0  0
   -2.8726    1.0945    0.0000 C   0  0  0  0  0  0  0  0  0  0  0  0
   -1.5117    1.7254    0.0000 C   0  0  0  0  0  0  0  0  0  0  0  0
   -1.3776    3.2194    0.0000 C   0  0  0  0  0  0  0  0  0  0  0  0
   -2.6044    4.0825    0.0000 C   0  0  0  0  0  0  0  0  0  0  0  0
   -3.9653    3.4517    0.0000 C   0  0  0  0  0  0  0  0  0  0  0  0
   -4.0994    1.9577    0.0000 C   0  0  0  0  0  0  0  0  0  0  0  0
   -5.4602    1.3268    0.0000 F   0  0  0  0  0  0  0  0  0  0  0  0
   -2.4703    5.5765    0.0000 F   0  0  0  0  0  0  0  0  0  0  0  0
  1  2  1  0
  2  3  1  0
  3  4  2  0
  4  5  1  0
  5  6  2  0
  6  7  1  0
  7  8  2  0
  6  9  1  0
  9 10  2  0
 10 11  1  0
 11 12  2  0
 12 13  1  0
 13 14  2  0
 13 15  1  0
 15 16  2  0
 16 17  1  0
 17 18  2  0
 15 19  1  0
 19 20  2  0
 20 21  1  0
 21 22  2  0
 22 23  1  0
 23 24  2  0
  4 25  1  0
 25 26  1  0
 26 27  2  0
 26 28  2  0
 26 29  1  0
 29 30  2  0
 30 31  1  0
 31 32  2  0
 32 33  1  0
 33 34  2  0
 34 35  1  0
 32 36  1  0
  8  3  1  0
 14  9  1  0
 18 12  1  0
 24 19  1  0
 34 29  1  0
M  END
>  <BrandName>  (248) 


>  <Applicants>  (248) 
GlaxosmithKline

>  <CHEMBL_ID>  (248) 
CHEMBL1236962

>  <Canonical_Smiles>  (248) 
COc1c(cc(cn1)c2ccc3c(c2)c(ccn3)c4ccnnc4)NS(=O)(=O)c5ccc(cc5F)F

>  <Chirality>  (248) 
Achiral Molecule

>  <First_Approval>  (248) 
nan

>  <Phase>  (248) 
2.0

>  <SC_Patent>  (248) 
nan

>  <Synonyms>  (248) 
GSK-2126458 | GSK2126458 | OMIPALISIB

>  <Withdrawn>  (248) 
nan

>  <Indications>  (248) 
nan

>  <Type>  (248) 
1

>  <targets_id>  (248) 
P42336|P42345

>  <Inchi>  (248) 
InChI=1S/C25H17F2N5O3S/c1-35-25-23(32-36(33,34)24-5-3-18(26)12-21(24)27)11-17(13-29-25)15-2-4-22-20(10-15)19(7-8-28-22)16-6-9-30-31-14-16/h2-14,32H,1H3

>  <stdInchikey>  (248) 
CGBJSGAELGCMKE-UHFFFAOYSA-N

>  <csid>  (248) 
25027388

>  <Links>  (248) 
|http://www.chemspider.com/Chemical-Structure.25027388.html|https://www.ebi.ac.uk/chembldb/compound/inspect/CHEMBL1236962|https://pubchem.ncbi.nlm.nih.gov/compound/25167777|https://go.drugbank.com/drugs/DB12703|https://www.rcsb.org/ligand/ZIG|https://www.ebi.ac.uk/pdbe-srv/pdbechem/chemicalCompound/show/ZIG|https://www.guidetopharmacology.org/GRAC/LigandDisplayForward?8974|https://zinc15.docking.org/substances/ZINC000043208634|https://precision.fda.gov/uniisearch/srs/unii/1X8F5A3NA0|https://www.bindingdb.org/bind/chemsearch/marvin/MolStructure.jsp?monomerid=50145416

>  <LinkName>  (248) 
|ChemSpider|ChEMBL|PubChem|DrugBank|RCSB|PDBe|Guide to Pharmacology|ZINC|FDA SRS|BindingDB

>  <lig_pdb_ID>  (248) 
ZIG

>  <pdb_IDs>  (248) 
3l08

>  <indicationDB>  (248) 


>  <uniprotId>  (248) 


>  <indicationG2P>  (248) 
None

>  <MW>  (248) 
505.1

>  <HBA>  (248) 
7

>  <HBD>  (248) 
1

>  <NRB>  (248) 
6

>  <TPSA>  (248) 
107.0

>  <LogP>  (248) 
4.8

>  <RoF>  (248) 
1

>  <Melting point>  (248) 
nan

>  <Targets>  (248) 
PIK3CA; MTOR

>  <Kinase families>  (248) 
Atypical

>  <FDA_approved>  (248) 


$$$$
Pictilisib
     RDKit          2D

 35 40  0  0  0  0  0  0  0  0999 V2000
    8.7595   -2.1866    0.0000 C   0  0  0  0  0  0  0  0  0  0  0  0
    7.5676   -1.2760    0.0000 S   0  0  0  0  0  0  0  0  0  0  0  0
    8.4782   -0.0840    0.0000 O   0  0  0  0  0  0  0  0  0  0  0  0
    6.6569   -2.4679    0.0000 O   0  0  0  0  0  0  0  0  0  0  0  0
    6.3756   -0.3653    0.0000 N   0  0  0  0  0  0  0  0  0  0  0  0
    4.9910   -0.9423    0.0000 C   0  0  0  0  0  0  0  0  0  0  0  0
    3.7990   -0.0316    0.0000 C   0  0  0  0  0  0  0  0  0  0  0  0
    3.9917    1.4559    0.0000 N   0  0  0  0  0  0  0  0  0  0  0  0
    5.3763    2.0329    0.0000 C   0  0  0  0  0  0  0  0  0  0  0  0
    6.5683    1.1222    0.0000 C   0  0  0  0  0  0  0  0  0  0  0  0
    2.7997    2.3666    0.0000 C   0  0  0  0  0  0  0  0  0  0  0  0
    1.4151    1.7896    0.0000 C   0  0  0  0  0  0  0  0  0  0  0  0
    1.0680    0.3303    0.0000 C   0  0  0  0  0  0  0  0  0  0  0  0
   -0.4271    0.2095    0.0000 C   0  0  0  0  0  0  0  0  0  0  0  0
   -1.0040    1.5941    0.0000 C   0  0  0  0  0  0  0  0  0  0  0  0
    0.1345    2.5707    0.0000 S   0  0  0  0  0  0  0  0  0  0  0  0
   -2.4916    1.7867    0.0000 C   0  0  0  0  0  0  0  0  0  0  0  0
   -3.4022    0.5948    0.0000 N   0  0  0  0  0  0  0  0  0  0  0  0
   -2.8253   -0.7898    0.0000 C   0  0  0  0  0  0  0  0  0  0  0  0
   -1.3377   -0.9825    0.0000 N   0  0  0  0  0  0  0  0  0  0  0  0
   -3.7359   -1.9818    0.0000 C   0  0  0  0  0  0  0  0  0  0  0  0
   -5.2235   -1.7891    0.0000 C   0  0  0  0  0  0  0  0  0  0  0  0
   -6.1341   -2.9811    0.0000 C   0  0  0  0  0  0  0  0  0  0  0  0
   -5.5572   -4.3657    0.0000 C   0  0  0  0  0  0  0  0  0  0  0  0
   -4.0696   -4.5583    0.0000 C   0  0  0  0  0  0  0  0  0  0  0  0
   -3.1590   -3.3664    0.0000 C   0  0  0  0  0  0  0  0  0  0  0  0
   -1.7439   -3.8641    0.0000 C   0  0  0  0  0  0  0  0  0  0  0  0
   -1.7801   -5.3637    0.0000 N   0  0  0  0  0  0  0  0  0  0  0  0
   -3.2174   -5.7927    0.0000 N   0  0  0  0  0  0  0  0  0  0  0  0
   -3.0685    3.1713    0.0000 N   0  0  0  0  0  0  0  0  0  0  0  0
   -2.1579    4.3633    0.0000 C   0  0  0  0  0  0  0  0  0  0  0  0
   -2.7349    5.7479    0.0000 C   0  0  0  0  0  0  0  0  0  0  0  0
   -4.2224    5.9405    0.0000 O   0  0  0  0  0  0  0  0  0  0  0  0
   -5.1331    4.7486    0.0000 C   0  0  0  0  0  0  0  0  0  0  0  0
   -4.5561    3.3640    0.0000 C   0  0  0  0  0  0  0  0  0  0  0  0
  1  2  1  0
  2  3  2  0
  2  4  2  0
  2  5  1  0
  5  6  1  0
  6  7  1  0
  7  8  1  0
  8  9  1  0
  9 10  1  0
  8 11  1  0
 11 12  1  0
 12 13  2  0
 13 14  1  0
 14 15  2  0
 15 16  1  0
 15 17  1  0
 17 18  2  0
 18 19  1  0
 19 20  2  0
 19 21  1  0
 21 22  2  0
 22 23  1  0
 23 24  2  0
 24 25  1  0
 25 26  2  0
 26 27  1  0
 27 28  2  0
 28 29  1  0
 17 30  1  0
 30 31  1  0
 31 32  1  0
 32 33  1  0
 33 34  1  0
 34 35  1  0
 10  5  1  0
 16 12  1  0
 20 14  1  0
 26 21  1  0
 29 25  1  0
 35 30  1  0
M  END
>  <BrandName>  (249) 


>  <Applicants>  (249) 
Hoffmann-La Roche

>  <CHEMBL_ID>  (249) 
CHEMBL521851

>  <Canonical_Smiles>  (249) 
CS(=O)(=O)N1CCN(CC1)Cc2cc3c(s2)c(nc(n3)c4cccc5c4cn[nH]5)N6CCOCC6

>  <Chirality>  (249) 
Achiral Molecule

>  <First_Approval>  (249) 
nan

>  <Phase>  (249) 
2.0

>  <SC_Patent>  (249) 
nan

>  <Synonyms>  (249) 
CDC-0941 | GDC 0941 | GDC-0941 | PICTILISIB | PICTRELISIB | RG-7321

>  <Withdrawn>  (249) 
{''}

>  <Indications>  (249) 
nan

>  <Type>  (249) 
1

>  <targets_id>  (249) 
P42336|P42338|O00329|P48736

>  <Inchi>  (249) 
InChI=1S/C23H27N7O3S2/c1-35(31,32)30-7-5-28(6-8-30)15-16-13-20-21(34-16)23(29-9-11-33-12-10-29)26-22(25-20)17-3-2-4-19-18(17)14-24-27-19/h2-4,13-14H,5-12,15H2,1H3,(H,24,27)

>  <stdInchikey>  (249) 
LHNIIDJUOCFXAP-UHFFFAOYSA-N

>  <csid>  (249) 
21437049

>  <Links>  (249) 
|http://www.chemspider.com/Chemical-Structure.21437049.html|https://www.ebi.ac.uk/chembldb/compound/inspect/CHEMBL521851|https://pubchem.ncbi.nlm.nih.gov/compound/17755052|https://go.drugbank.com/drugs/DB11663|https://www.rcsb.org/ligand/GD9|https://www.ebi.ac.uk/pdbe-srv/pdbechem/chemicalCompound/show/GD9|https://www.guidetopharmacology.org/GRAC/LigandDisplayForward?5682|https://zinc15.docking.org/substances/ZINC000016052714|https://precision.fda.gov/uniisearch/srs/unii/ICY00EMP8P|https://www.bindingdb.org/bind/chemsearch/marvin/MolStructure.jsp?monomerid=25028

>  <LinkName>  (249) 
|ChemSpider|ChEMBL|PubChem|DrugBank|RCSB|PDBe|Guide to Pharmacology|ZINC|FDA SRS|BindingDB

>  <lig_pdb_ID>  (249) 
GD9

>  <pdb_IDs>  (249) 
2wxp 2y3a 3dbs

>  <indicationDB>  (249) 


>  <uniprotId>  (249) 


>  <indicationG2P>  (249) 
None

>  <MW>  (249) 
513.2

>  <HBA>  (249) 
9

>  <HBD>  (249) 
1

>  <NRB>  (249) 
5

>  <TPSA>  (249) 
107.6

>  <LogP>  (249) 
2.1

>  <RoF>  (249) 
1

>  <Melting point>  (249) 
nan

>  <Targets>  (249) 
PIK3CA; PIK3CB; PIK3CD; PIK3CG

>  <Kinase families>  (249) 
Atypical

>  <FDA_approved>  (249) 


$$$$
Pimasertib
     RDKit          2D

 23 24  0  0  0  0  0  0  0  0999 V2000
    4.6692   -2.5075    0.0000 C   0  0  0  0  0  0  0  0  0  0  0  0
    3.1901   -2.2576    0.0000 C   0  0  0  0  0  0  0  0  0  0  0  0
    2.6671   -0.8517    0.0000 C   0  0  0  0  0  0  0  0  0  0  0  0
    3.6231    0.3042    0.0000 C   0  0  0  0  0  0  0  0  0  0  0  0
    5.1021    0.0542    0.0000 C   0  0  0  0  0  0  0  0  0  0  0  0
    5.6251   -1.3517    0.0000 C   0  0  0  0  0  0  0  0  0  0  0  0
    7.1042   -1.6016    0.0000 I   0  0  0  0  0  0  0  0  0  0  0  0
    3.1001    1.7100    0.0000 F   0  0  0  0  0  0  0  0  0  0  0  0
    1.1881   -0.6018    0.0000 N   0  0  0  0  0  0  0  0  0  0  0  0
    0.6650    0.8041    0.0000 C   0  0  0  0  0  0  0  0  0  0  0  0
    1.6210    1.9600    0.0000 C   0  0  0  0  0  0  0  0  0  0  0  0
    1.0980    3.3658    0.0000 N   0  0  0  0  0  0  0  0  0  0  0  0
   -0.3810    3.6158    0.0000 C   0  0  0  0  0  0  0  0  0  0  0  0
   -1.3370    2.4599    0.0000 C   0  0  0  0  0  0  0  0  0  0  0  0
   -0.8140    1.0541    0.0000 C   0  0  0  0  0  0  0  0  0  0  0  0
   -1.7700   -0.1018    0.0000 C   0  0  0  0  0  0  0  0  0  0  0  0
   -1.2469   -1.5077    0.0000 O   0  0  0  0  0  0  0  0  0  0  0  0
   -3.2490    0.1481    0.0000 N   0  0  0  0  0  0  0  0  0  0  0  0
   -4.2050   -1.0077    0.0000 C   0  0  0  0  0  0  0  0  0  0  0  0
   -5.6840   -0.7578    0.0000 C   0  0  0  0  0  0  0  0  0  0  0  0
   -6.6400   -1.9137    0.0000 C   0  0  0  0  0  0  0  0  0  0  0  0
   -8.1190   -1.6637    0.0000 O   0  0  0  0  0  0  0  0  0  0  0  0
   -6.2071    0.6481    0.0000 O   0  0  0  0  0  0  0  0  0  0  0  0
  1  2  2  0
  2  3  1  0
  3  4  2  0
  4  5  1  0
  5  6  2  0
  6  7  1  0
  4  8  1  0
  3  9  1  0
  9 10  1  0
 10 11  2  0
 11 12  1  0
 12 13  2  0
 13 14  1  0
 14 15  2  0
 15 16  1  0
 16 17  2  0
 16 18  1  0
 18 19  1  0
 19 20  1  0
 20 21  1  0
 21 22  1  0
 20 23  1  1
  6  1  1  0
 15 10  1  0
M  END
>  <BrandName>  (250) 
 as703026; emd 1036239;AS703026;EMD 1036239;MSC1936369A;Msc1936369a;Msc1936369a; as703026; emd 1036239;as703026

>  <Applicants>  (250) 
Merck

>  <CHEMBL_ID>  (250) 
CHEMBL2107832

>  <Canonical_Smiles>  (250) 
c1cc(c(cc1I)F)Nc2cnccc2C(=O)NC[C@@H](CO)O

>  <Chirality>  (250) 
Single Stereoisomer

>  <First_Approval>  (250) 
nan

>  <Phase>  (250) 
2.0

>  <SC_Patent>  (250) 
nan

>  <Synonyms>  (250) 
AS 703026 | AS-703026 | AS703026 | EMD 1036239 | EMD-1036239 | G-02443714 | MSC-1936369 | MSC-1936369A | MSC-1936369B | MSC1936369A | MSC1936369A; AS703026; EMD 1036239 | PIMASERTIB

>  <Withdrawn>  (250) 
{''}

>  <Indications>  (250) 
nan

>  <Type>  (250) 
nan

>  <targets_id>  (250) 
Q02750|P36507

>  <Inchi>  (250) 
InChI=1S/C15H15FIN3O3/c16-12-5-9(17)1-2-13(12)20-14-7-18-4-3-11(14)15(23)19-6-10(22)8-21/h1-5,7,10,20-22H,6,8H2,(H,19,23)/t10-/m0/s1

>  <stdInchikey>  (250) 
VIUAUNHCRHHYNE-JTQLQIEISA-N

>  <csid>  (250) 
24747378

>  <Links>  (250) 
|http://www.chemspider.com/Chemical-Structure.24747378.html|https://www.ebi.ac.uk/chembldb/compound/inspect/CHEMBL2107832|https://pubchem.ncbi.nlm.nih.gov/compound/44187362|https://go.drugbank.com/drugs/DB14904|https://www.rcsb.org/ligand/QOA|https://www.ebi.ac.uk/pdbe-srv/pdbechem/chemicalCompound/show/QOA|https://www.guidetopharmacology.org/GRAC/LigandDisplayForward?7872|https://zinc15.docking.org/substances/ZINC000038226009|https://precision.fda.gov/uniisearch/srs/unii/6ON9RK82AL|https://www.bindingdb.org/bind/chemsearch/marvin/MolStructure.jsp?monomerid=50014412

>  <LinkName>  (250) 
|ChemSpider|ChEMBL|PubChem|DrugBank|RCSB|PDBe|Guide to Pharmacology|ZINC|FDA SRS|BindingDB

>  <lig_pdb_ID>  (250) 
QOA

>  <pdb_IDs>  (250) 
7m0w

>  <indicationDB>  (250) 


>  <uniprotId>  (250) 


>  <indicationG2P>  (250) 
None

>  <MW>  (250) 
431.0

>  <HBA>  (250) 
5

>  <HBD>  (250) 
4

>  <NRB>  (250) 
6

>  <TPSA>  (250) 
94.5

>  <LogP>  (250) 
1.7

>  <RoF>  (250) 
0

>  <Melting point>  (250) 
nan

>  <Targets>  (250) 
MAP2K1; MAP2K2

>  <Kinase families>  (250) 
STE

>  <FDA_approved>  (250) 


$$$$
Pirotinib
     RDKit          2D

 36 40  0  0  0  0  0  0  0  0999 V2000
   11.0206   -0.3816    0.0000 C   0  0  0  0  0  0  0  0  0  0  0  0
    9.5266   -0.5165    0.0000 N   0  0  0  0  0  0  0  0  0  0  0  0
    8.8965   -1.8777    0.0000 C   0  0  0  0  0  0  0  0  0  0  0  0
    7.4026   -2.0126    0.0000 C   0  0  0  0  0  0  0  0  0  0  0  0
    6.5388   -0.7863    0.0000 C   0  0  0  0  0  0  0  0  0  0  0  0
    7.1689    0.5749    0.0000 C   0  0  0  0  0  0  0  0  0  0  0  0
    8.6628    0.7098    0.0000 C   0  0  0  0  0  0  0  0  0  0  0  0
    5.3870    0.1747    0.0000 C   0  0  0  0  0  0  0  0  0  0  0  0
    4.4261   -0.9771    0.0000 C   0  0  0  0  0  0  0  0  0  0  0  0
    5.5778   -1.9381    0.0000 C   0  0  0  0  0  0  0  0  0  0  0  0
    2.9322   -1.1120    0.0000 C   0  0  0  0  0  0  0  0  0  0  0  0
    2.0684    0.1143    0.0000 O   0  0  0  0  0  0  0  0  0  0  0  0
    0.5744   -0.0206    0.0000 C   0  0  0  0  0  0  0  0  0  0  0  0
   -0.0557   -1.3818    0.0000 C   0  0  0  0  0  0  0  0  0  0  0  0
   -1.5496   -1.5167    0.0000 C   0  0  0  0  0  0  0  0  0  0  0  0
   -2.4134   -0.2904    0.0000 C   0  0  0  0  0  0  0  0  0  0  0  0
   -1.7833    1.0708    0.0000 C   0  0  0  0  0  0  0  0  0  0  0  0
   -0.2894    1.2057    0.0000 C   0  0  0  0  0  0  0  0  0  0  0  0
    0.3408    2.5670    0.0000 N   0  0  0  0  0  0  0  0  0  0  0  0
    1.8347    2.7019    0.0000 C   0  0  0  0  0  0  0  0  0  0  0  0
    2.6985    1.4755    0.0000 O   0  0  0  0  0  0  0  0  0  0  0  0
    2.4648    4.0631    0.0000 C   0  0  0  0  0  0  0  0  0  0  0  0
    3.9587    4.1980    0.0000 C   0  0  0  0  0  0  0  0  0  0  0  0
   -3.9073   -0.4253    0.0000 C   0  0  0  0  0  0  0  0  0  0  0  0
   -4.5374   -1.7865    0.0000 N   0  0  0  0  0  0  0  0  0  0  0  0
   -3.6737   -3.0129    0.0000 C   0  0  0  0  0  0  0  0  0  0  0  0
   -2.1797   -2.8779    0.0000 N   0  0  0  0  0  0  0  0  0  0  0  0
   -4.7711    0.8010    0.0000 N   0  0  0  0  0  0  0  0  0  0  0  0
   -6.2650    0.6661    0.0000 C   0  0  0  0  0  0  0  0  0  0  0  0
   -7.1288    1.8924    0.0000 C   0  0  0  0  0  0  0  0  0  0  0  0
   -8.6228    1.7575    0.0000 C   0  0  0  0  0  0  0  0  0  0  0  0
   -9.2529    0.3963    0.0000 C   0  0  0  0  0  0  0  0  0  0  0  0
   -8.3891   -0.8300    0.0000 C   0  0  0  0  0  0  0  0  0  0  0  0
   -6.8952   -0.6951    0.0000 C   0  0  0  0  0  0  0  0  0  0  0  0
   -9.0192   -2.1913    0.0000 Cl  0  0  0  0  0  0  0  0  0  0  0  0
  -10.7468    0.2614    0.0000 F   0  0  0  0  0  0  0  0  0  0  0  0
  1  2  1  0
  2  3  1  0
  3  4  1  0
  4  5  1  0
  5  6  1  0
  6  7  1  0
  5  8  1  0
  8  9  1  0
  9 10  1  0
  9 11  1  0
 11 12  1  0
 12 13  1  0
 13 14  2  0
 14 15  1  0
 15 16  2  0
 16 17  1  0
 17 18  2  0
 18 19  1  0
 19 20  1  0
 20 21  2  0
 20 22  1  0
 22 23  2  0
 16 24  1  0
 24 25  2  0
 25 26  1  0
 26 27  2  0
 24 28  1  0
 28 29  1  0
 29 30  2  0
 30 31  1  0
 31 32  2  0
 32 33  1  0
 33 34  2  0
 33 35  1  0
 32 36  1  0
  7  2  1  0
 10  5  1  0
 18 13  1  0
 27 15  1  0
 34 29  1  0
M  END
>  <BrandName>  (251) 


>  <Applicants>  (251) 
XuanZhu Pharma

>  <CHEMBL_ID>  (251) 
nan

>  <Canonical_Smiles>  (251) 
CN1CCC2(CC1)CC(C2)COc3cc4c(cc3NC(=O)C=C)c(ncn4)Nc5ccc(c(c5)Cl)F

>  <Chirality>  (251) 
nan

>  <First_Approval>  (251) 
nan

>  <Phase>  (251) 
2.0

>  <SC_Patent>  (251) 
nan

>  <Synonyms>  (251) 
|KBP-5209

>  <Withdrawn>  (251) 
{''}

>  <Indications>  (251) 
nan

>  <Type>  (251) 
nan

>  <targets_id>  (251) 
nan

>  <Inchi>  (251) 
InChI=1S/C27H29ClFN5O2/c1-3-25(35)33-23-11-19-22(30-16-31-26(19)32-18-4-5-21(29)20(28)10-18)12-24(23)36-15-17-13-27(14-17)6-8-34(2)9-7-27/h3-5,10-12,16-17H,1,6-9,13-15H2,2H3,(H,33,35)(H,30,31,32)

>  <stdInchikey>  (251) 
KJBZQIKLKWQVLL-UHFFFAOYSA-N

>  <csid>  (251) 
58810202

>  <Links>  (251) 
|http://www.chemspider.com/Chemical-Structure.58810202.html|https://pubchem.ncbi.nlm.nih.gov/compound/56933206|https://precision.fda.gov/uniisearch/srs/unii/M8R6ETA52F|https://www.bindingdb.org/bind/chemsearch/marvin/MolStructure.jsp?monomerid=333466

>  <LinkName>  (251) 
|ChemSpider|PubChem|FDA SRS|BindingDB

>  <lig_pdb_ID>  (251) 


>  <pdb_IDs>  (251) 


>  <indicationDB>  (251) 


>  <uniprotId>  (251) 


>  <indicationG2P>  (251) 


>  <MW>  (251) 
509.2

>  <HBA>  (251) 
6

>  <HBD>  (251) 
2

>  <NRB>  (251) 
7

>  <TPSA>  (251) 
79.4

>  <LogP>  (251) 
5.8

>  <RoF>  (251) 
2

>  <Melting point>  (251) 
nan

>  <Targets>  (251) 
nan

>  <Kinase families>  (251) 


>  <FDA_approved>  (251) 


$$$$
Prexasertib
     RDKit          2D

 27 29  0  0  0  0  0  0  0  0999 V2000
   -2.6180   -5.2908    0.0000 C   0  0  0  0  0  0  0  0  0  0  0  0
   -2.1320   -3.8717    0.0000 O   0  0  0  0  0  0  0  0  0  0  0  0
   -3.1179   -2.7412    0.0000 C   0  0  0  0  0  0  0  0  0  0  0  0
   -4.5899   -3.0299    0.0000 C   0  0  0  0  0  0  0  0  0  0  0  0
   -5.5759   -1.8994    0.0000 C   0  0  0  0  0  0  0  0  0  0  0  0
   -5.0898   -0.4803    0.0000 C   0  0  0  0  0  0  0  0  0  0  0  0
   -3.6178   -0.1917    0.0000 C   0  0  0  0  0  0  0  0  0  0  0  0
   -2.6319   -1.3222    0.0000 C   0  0  0  0  0  0  0  0  0  0  0  0
   -1.1599   -1.0336    0.0000 C   0  0  0  0  0  0  0  0  0  0  0  0
   -0.5282    0.3269    0.0000 C   0  0  0  0  0  0  0  0  0  0  0  0
    0.9609    0.1466    0.0000 C   0  0  0  0  0  0  0  0  0  0  0  0
    1.2495   -1.3254    0.0000 N   0  0  0  0  0  0  0  0  0  0  0  0
   -0.0612   -2.0548    0.0000 N   0  0  0  0  0  0  0  0  0  0  0  0
    1.9821    1.2453    0.0000 N   0  0  0  0  0  0  0  0  0  0  0  0
    3.4442    0.9102    0.0000 C   0  0  0  0  0  0  0  0  0  0  0  0
    3.8851   -0.5235    0.0000 C   0  0  0  0  0  0  0  0  0  0  0  0
    5.3472   -0.8585    0.0000 N   0  0  0  0  0  0  0  0  0  0  0  0
    6.3684    0.2401    0.0000 C   0  0  0  0  0  0  0  0  0  0  0  0
    5.9275    1.6739    0.0000 C   0  0  0  0  0  0  0  0  0  0  0  0
    4.4654    2.0089    0.0000 N   0  0  0  0  0  0  0  0  0  0  0  0
    7.8305   -0.0949    0.0000 C   0  0  0  0  0  0  0  0  0  0  0  0
    9.2926   -0.4299    0.0000 N   0  0  0  0  0  0  0  0  0  0  0  0
   -3.1318    1.2274    0.0000 O   0  0  0  0  0  0  0  0  0  0  0  0
   -4.1177    2.3578    0.0000 C   0  0  0  0  0  0  0  0  0  0  0  0
   -3.6317    3.7769    0.0000 C   0  0  0  0  0  0  0  0  0  0  0  0
   -4.6176    4.9073    0.0000 C   0  0  0  0  0  0  0  0  0  0  0  0
   -4.1316    6.3264    0.0000 N   0  0  0  0  0  0  0  0  0  0  0  0
  1  2  1  0
  2  3  1  0
  3  4  2  0
  4  5  1  0
  5  6  2  0
  6  7  1  0
  7  8  2  0
  8  9  1  0
  9 10  2  0
 10 11  1  0
 11 12  2  0
 12 13  1  0
 11 14  1  0
 14 15  1  0
 15 16  2  0
 16 17  1  0
 17 18  2  0
 18 19  1  0
 19 20  2  0
 18 21  1  0
 21 22  3  0
  7 23  1  0
 23 24  1  0
 24 25  1  0
 25 26  1  0
 26 27  1  0
  8  3  1  0
 13  9  1  0
 20 15  1  0
M  END
>  <BrandName>  (252) 


>  <Applicants>  (252) 
Eli Lilly

>  <CHEMBL_ID>  (252) 
CHEMBL3544911

>  <Canonical_Smiles>  (252) 
COc1cccc(c1c2cc(n[nH]2)Nc3cnc(cn3)C#N)OCCCN

>  <Chirality>  (252) 
Achiral Molecule

>  <First_Approval>  (252) 
nan

>  <Phase>  (252) 
2.0

>  <SC_Patent>  (252) 
nan

>  <Synonyms>  (252) 
LY-2606368 | LY2606368 | PREXASERTIB

>  <Withdrawn>  (252) 
{''}

>  <Indications>  (252) 
nan

>  <Type>  (252) 
nan

>  <targets_id>  (252) 
O14757|O96017

>  <Inchi>  (252) 
InChI=1S/C18H19N7O2/c1-26-14-4-2-5-15(27-7-3-6-19)18(14)13-8-16(25-24-13)23-17-11-21-12(9-20)10-22-17/h2,4-5,8,10-11H,3,6-7,19H2,1H3,(H2,22,23,24,25)

>  <stdInchikey>  (252) 
DOTGPNHGTYJDEP-UHFFFAOYSA-N

>  <csid>  (252) 
32738771

>  <Links>  (252) 
|http://www.chemspider.com/Chemical-Structure.32738771.html|https://www.ebi.ac.uk/chembldb/compound/inspect/CHEMBL3544911|https://pubchem.ncbi.nlm.nih.gov/compound/46700756|https://go.drugbank.com/drugs/DB12008|https://www.guidetopharmacology.org/GRAC/LigandDisplayForward?9549|https://zinc15.docking.org/substances/ZINC000095837013|https://precision.fda.gov/uniisearch/srs/unii/820NH671E6|https://www.bindingdb.org/bind/chemsearch/marvin/MolStructure.jsp?monomerid=50524300

>  <LinkName>  (252) 
|ChemSpider|ChEMBL|PubChem|DrugBank|Guide to Pharmacology|ZINC|FDA SRS|BindingDB

>  <lig_pdb_ID>  (252) 


>  <pdb_IDs>  (252) 


>  <indicationDB>  (252) 


>  <uniprotId>  (252) 


>  <indicationG2P>  (252) 
None

>  <MW>  (252) 
365.2

>  <HBA>  (252) 
8

>  <HBD>  (252) 
3

>  <NRB>  (252) 
8

>  <TPSA>  (252) 
134.8

>  <LogP>  (252) 
2.2

>  <RoF>  (252) 
0

>  <Melting point>  (252) 
nan

>  <Targets>  (252) 
CHEK1; CHEK2

>  <Kinase families>  (252) 
CAMK

>  <FDA_approved>  (252) 


$$$$
Ralimetinib
     RDKit          2D

 31 34  0  0  0  0  0  0  0  0999 V2000
   -5.5614   -2.4115    0.0000 C   0  0  0  0  0  0  0  0  0  0  0  0
   -4.2323   -1.7161    0.0000 C   0  0  0  0  0  0  0  0  0  0  0  0
   -2.9032   -1.0207    0.0000 C   0  0  0  0  0  0  0  0  0  0  0  0
   -3.5369   -3.0451    0.0000 C   0  0  0  0  0  0  0  0  0  0  0  0
   -4.9277   -0.3870    0.0000 C   0  0  0  0  0  0  0  0  0  0  0  0
   -4.1244    0.8798    0.0000 N   0  0  0  0  0  0  0  0  0  0  0  0
   -2.6274    0.9745    0.0000 C   0  0  0  0  0  0  0  0  0  0  0  0
   -2.2549    2.4275    0.0000 C   0  0  0  0  0  0  0  0  0  0  0  0
   -0.8103    2.8314    0.0000 C   0  0  0  0  0  0  0  0  0  0  0  0
    0.2618    1.7822    0.0000 C   0  0  0  0  0  0  0  0  0  0  0  0
   -0.1107    0.3292    0.0000 C   0  0  0  0  0  0  0  0  0  0  0  0
   -1.5553   -0.0747    0.0000 N   0  0  0  0  0  0  0  0  0  0  0  0
    0.9613   -0.7199    0.0000 C   0  0  0  0  0  0  0  0  0  0  0  0
    2.4403   -0.4692    0.0000 C   0  0  0  0  0  0  0  0  0  0  0  0
    3.1357   -1.7983    0.0000 N   0  0  0  0  0  0  0  0  0  0  0  0
    2.0865   -2.8704    0.0000 C   0  0  0  0  0  0  0  0  0  0  0  0
    0.7427   -2.2039    0.0000 N   0  0  0  0  0  0  0  0  0  0  0  0
    2.3372   -4.3493    0.0000 C   0  0  0  0  0  0  0  0  0  0  0  0
    0.8583   -4.5999    0.0000 C   0  0  0  0  0  0  0  0  0  0  0  0
    3.8161   -4.0986    0.0000 C   0  0  0  0  0  0  0  0  0  0  0  0
    2.5879   -5.8282    0.0000 C   0  0  0  0  0  0  0  0  0  0  0  0
    3.1067    0.8746    0.0000 C   0  0  0  0  0  0  0  0  0  0  0  0
    2.2762    2.1237    0.0000 C   0  0  0  0  0  0  0  0  0  0  0  0
    2.9427    3.4675    0.0000 C   0  0  0  0  0  0  0  0  0  0  0  0
    4.4397    3.5622    0.0000 C   0  0  0  0  0  0  0  0  0  0  0  0
    5.2702    2.3131    0.0000 C   0  0  0  0  0  0  0  0  0  0  0  0
    4.6037    0.9693    0.0000 C   0  0  0  0  0  0  0  0  0  0  0  0
    5.1062    4.9060    0.0000 F   0  0  0  0  0  0  0  0  0  0  0  0
   -3.5217    3.2308    0.0000 N   0  0  0  0  0  0  0  0  0  0  0  0
   -4.6771    2.2742    0.0000 C   0  0  0  0  0  0  0  0  0  0  0  0
   -6.1301    2.6468    0.0000 N   0  0  0  0  0  0  0  0  0  0  0  0
  1  2  1  0
  2  3  1  0
  2  4  1  0
  2  5  1  0
  5  6  1  0
  6  7  1  0
  7  8  2  0
  8  9  1  0
  9 10  2  0
 10 11  1  0
 11 12  2  0
 11 13  1  0
 13 14  2  0
 14 15  1  0
 15 16  2  0
 16 17  1  0
 16 18  1  0
 18 19  1  0
 18 20  1  0
 18 21  1  0
 14 22  1  0
 22 23  2  0
 23 24  1  0
 24 25  2  0
 25 26  1  0
 26 27  2  0
 25 28  1  0
  8 29  1  0
 29 30  2  0
 30 31  1  0
 30  6  1  0
 12  7  1  0
 17 13  1  0
 27 22  1  0
M  END
>  <BrandName>  (253) 


>  <Applicants>  (253) 
Eli Lilly

>  <CHEMBL_ID>  (253) 
CHEMBL2364626

>  <Canonical_Smiles>  (253) 
CC(C)(C)Cn1c2c(ccc(n2)c3c(nc([nH]3)C(C)(C)C)c4ccc(cc4)F)nc1N

>  <Chirality>  (253) 
Achiral Molecule

>  <First_Approval>  (253) 
nan

>  <Phase>  (253) 
2.0

>  <SC_Patent>  (253) 
nan

>  <Synonyms>  (253) 
LSN-2322600 FREE BASE | LSN2322600 FREE BASE | LY-2228820 | LY2228820 | LY22288220 | RALIMETINIB

>  <Withdrawn>  (253) 
{''}

>  <Indications>  (253) 
nan

>  <Type>  (253) 
nan

>  <targets_id>  (253) 
Q16539|Q15759

>  <Inchi>  (253) 
InChI=1S/C24H29FN6/c1-23(2,3)13-31-20-17(28-22(31)26)12-11-16(27-20)19-18(14-7-9-15(25)10-8-14)29-21(30-19)24(4,5)6/h7-12H,13H2,1-6H3,(H2,26,28)(H,29,30)

>  <stdInchikey>  (253) 
XPPBBJCBDOEXDN-UHFFFAOYSA-N

>  <csid>  (253) 
9713805

>  <Links>  (253) 
|http://www.chemspider.com/Chemical-Structure.9713805.html|https://www.ebi.ac.uk/chembldb/compound/inspect/CHEMBL2364626|https://pubchem.ncbi.nlm.nih.gov/compound/11539025|https://go.drugbank.com/drugs/DB11787|https://www.rcsb.org/ligand/YXT|https://www.ebi.ac.uk/pdbe-srv/pdbechem/chemicalCompound/show/YXT|https://www.guidetopharmacology.org/GRAC/LigandDisplayForward?7959|https://zinc15.docking.org/substances/ZINC000034630490|https://precision.fda.gov/uniisearch/srs/unii/73I34XW4HD

>  <LinkName>  (253) 
|ChemSpider|ChEMBL|PubChem|DrugBank|RCSB|PDBe|Guide to Pharmacology|ZINC|FDA SRS

>  <lig_pdb_ID>  (253) 
YXT

>  <pdb_IDs>  (253) 
8g63

>  <indicationDB>  (253) 


>  <uniprotId>  (253) 


>  <indicationG2P>  (253) 
None

>  <MW>  (253) 
420.2

>  <HBA>  (253) 
5

>  <HBD>  (253) 
2

>  <NRB>  (253) 
3

>  <TPSA>  (253) 
85.4

>  <LogP>  (253) 
5.6

>  <RoF>  (253) 
1

>  <Melting point>  (253) 
nan

>  <Targets>  (253) 
MAPK14; MAPK11

>  <Kinase families>  (253) 
CMGC

>  <FDA_approved>  (253) 


$$$$
Cerdulatinib
     RDKit          2D

 31 34  0  0  0  0  0  0  0  0999 V2000
  -10.0043   -2.0059    0.0000 C   0  0  0  0  0  0  0  0  0  0  0  0
   -9.5143   -0.5882    0.0000 C   0  0  0  0  0  0  0  0  0  0  0  0
   -8.0415   -0.3038    0.0000 S   0  0  0  0  0  0  0  0  0  0  0  0
   -7.7571   -1.7766    0.0000 O   0  0  0  0  0  0  0  0  0  0  0  0
   -8.3259    1.1690    0.0000 O   0  0  0  0  0  0  0  0  0  0  0  0
   -6.5687   -0.0194    0.0000 N   0  0  0  0  0  0  0  0  0  0  0  0
   -6.0786    1.3983    0.0000 C   0  0  0  0  0  0  0  0  0  0  0  0
   -4.6058    1.6827    0.0000 C   0  0  0  0  0  0  0  0  0  0  0  0
   -3.6231    0.5494    0.0000 N   0  0  0  0  0  0  0  0  0  0  0  0
   -4.1132   -0.8682    0.0000 C   0  0  0  0  0  0  0  0  0  0  0  0
   -5.5860   -1.1527    0.0000 C   0  0  0  0  0  0  0  0  0  0  0  0
   -2.1503    0.8339    0.0000 C   0  0  0  0  0  0  0  0  0  0  0  0
   -1.1676   -0.2994    0.0000 C   0  0  0  0  0  0  0  0  0  0  0  0
    0.3052   -0.0150    0.0000 C   0  0  0  0  0  0  0  0  0  0  0  0
    0.7953    1.4027    0.0000 C   0  0  0  0  0  0  0  0  0  0  0  0
   -0.1874    2.5360    0.0000 C   0  0  0  0  0  0  0  0  0  0  0  0
   -1.6602    2.2515    0.0000 C   0  0  0  0  0  0  0  0  0  0  0  0
    2.2681    1.6871    0.0000 N   0  0  0  0  0  0  0  0  0  0  0  0
    3.2508    0.5538    0.0000 C   0  0  0  0  0  0  0  0  0  0  0  0
    2.7607   -0.8638    0.0000 N   0  0  0  0  0  0  0  0  0  0  0  0
    3.7434   -1.9971    0.0000 C   0  0  0  0  0  0  0  0  0  0  0  0
    5.2162   -1.7127    0.0000 C   0  0  0  0  0  0  0  0  0  0  0  0
    5.7063   -0.2950    0.0000 C   0  0  0  0  0  0  0  0  0  0  0  0
    4.7236    0.8383    0.0000 N   0  0  0  0  0  0  0  0  0  0  0  0
    7.1790   -0.0106    0.0000 N   0  0  0  0  0  0  0  0  0  0  0  0
    7.6691    1.4071    0.0000 C   0  0  0  0  0  0  0  0  0  0  0  0
    7.3847    2.8799    0.0000 C   0  0  0  0  0  0  0  0  0  0  0  0
    8.8024    2.3898    0.0000 C   0  0  0  0  0  0  0  0  0  0  0  0
    6.1989   -2.8459    0.0000 C   0  0  0  0  0  0  0  0  0  0  0  0
    7.6717   -2.5615    0.0000 O   0  0  0  0  0  0  0  0  0  0  0  0
    5.7088   -4.2636    0.0000 N   0  0  0  0  0  0  0  0  0  0  0  0
  1  2  1  0
  2  3  1  0
  3  4  2  0
  3  5  2  0
  3  6  1  0
  6  7  1  0
  7  8  1  0
  8  9  1  0
  9 10  1  0
 10 11  1  0
  9 12  1  0
 12 13  2  0
 13 14  1  0
 14 15  2  0
 15 16  1  0
 16 17  2  0
 15 18  1  0
 18 19  1  0
 19 20  2  0
 20 21  1  0
 21 22  2  0
 22 23  1  0
 23 24  2  0
 23 25  1  0
 25 26  1  0
 26 27  1  0
 27 28  1  0
 22 29  1  0
 29 30  2  0
 29 31  1  0
 11  6  1  0
 17 12  1  0
 24 19  1  0
 28 26  1  0
M  END
>  <BrandName>  (254) 


>  <Applicants>  (254) 
Portola pharmaceuticals

>  <CHEMBL_ID>  (254) 
CHEMBL4116008

>  <Canonical_Smiles>  (254) 
CCS(=O)(=O)N1CCN(CC1)c2ccc(cc2)Nc3ncc(c(n3)NC4CC4)C(=O)N

>  <Chirality>  (254) 
Achiral Molecule

>  <First_Approval>  (254) 
nan

>  <Phase>  (254) 
2.5

>  <SC_Patent>  (254) 
nan

>  <Synonyms>  (254) 
CERDULATINIB | PRT-062070 | PRT-2070 | RVT-502

>  <Withdrawn>  (254) 
nan

>  <Indications>  (254) 
nan

>  <Type>  (254) 
nan

>  <targets_id>  (254) 
P23458|P43405

>  <Inchi>  (254) 
InChI=1S/C20H27N7O3S/c1-2-31(29,30)27-11-9-26(10-12-27)16-7-5-15(6-8-16)24-20-22-13-17(18(21)28)19(25-20)23-14-3-4-14/h5-8,13-14H,2-4,9-12H2,1H3,(H2,21,28)(H2,22,23,24,25)

>  <stdInchikey>  (254) 
BGLPECHZZQDNCD-UHFFFAOYSA-N

>  <csid>  (254) 
32822046

>  <Links>  (254) 
|http://www.chemspider.com/Chemical-Structure.32822046.html|https://www.ebi.ac.uk/chembldb/compound/inspect/CHEMBL4116008|https://pubchem.ncbi.nlm.nih.gov/compound/44595079|https://go.drugbank.com/drugs/DB15499|https://www.rcsb.org/ligand/S5I|https://www.ebi.ac.uk/pdbe-srv/pdbechem/chemicalCompound/show/S5I|https://www.guidetopharmacology.org/GRAC/LigandDisplayForward?8957|https://zinc15.docking.org/substances/ZINC000114483165|https://precision.fda.gov/uniisearch/srs/unii/D1LXQ45S1O|https://www.bindingdb.org/bind/chemsearch/marvin/MolStructure.jsp?monomerid=50468574

>  <LinkName>  (254) 
|ChemSpider|ChEMBL|PubChem|DrugBank|RCSB|PDBe|Guide to Pharmacology|ZINC|FDA SRS|BindingDB

>  <lig_pdb_ID>  (254) 
S5I

>  <pdb_IDs>  (254) 
8bx6

>  <indicationDB>  (254) 


>  <uniprotId>  (254) 


>  <indicationG2P>  (254) 
None

>  <MW>  (254) 
445.2

>  <HBA>  (254) 
8

>  <HBD>  (254) 
3

>  <NRB>  (254) 
8

>  <TPSA>  (254) 
133.6

>  <LogP>  (254) 
1.4

>  <RoF>  (254) 
0

>  <Melting point>  (254) 
nan

>  <Targets>  (254) 
JAK1; SYK

>  <Kinase families>  (254) 
Tyr

>  <FDA_approved>  (254) 


$$$$
Darovasertib
     RDKit          2D

 34 37  0  0  0  0  0  0  0  0999 V2000
    6.3787   -3.9228    0.0000 C   0  0  0  0  0  0  0  0  0  0  0  0
    5.2270   -2.9617    0.0000 C   0  0  0  0  0  0  0  0  0  0  0  0
    4.4805   -4.2628    0.0000 N   0  0  0  0  0  0  0  0  0  0  0  0
    3.8161   -2.4525    0.0000 C   0  0  0  0  0  0  0  0  0  0  0  0
    3.5517   -0.9760    0.0000 C   0  0  0  0  0  0  0  0  0  0  0  0
    4.6982   -0.0087    0.0000 N   0  0  0  0  0  0  0  0  0  0  0  0
    4.4337    1.4678    0.0000 C   0  0  0  0  0  0  0  0  0  0  0  0
    5.5802    2.4351    0.0000 C   0  0  0  0  0  0  0  0  0  0  0  0
    5.3158    3.9116    0.0000 C   0  0  0  0  0  0  0  0  0  0  0  0
    3.9048    4.4208    0.0000 C   0  0  0  0  0  0  0  0  0  0  0  0
    2.7584    3.4536    0.0000 N   0  0  0  0  0  0  0  0  0  0  0  0
    3.0228    1.9770    0.0000 C   0  0  0  0  0  0  0  0  0  0  0  0
    1.8763    1.0098    0.0000 N   0  0  0  0  0  0  0  0  0  0  0  0
    0.4654    1.5190    0.0000 C   0  0  0  0  0  0  0  0  0  0  0  0
    0.2010    2.9955    0.0000 O   0  0  0  0  0  0  0  0  0  0  0  0
   -0.6810    0.5518    0.0000 C   0  0  0  0  0  0  0  0  0  0  0  0
   -2.0920    1.0610    0.0000 N   0  0  0  0  0  0  0  0  0  0  0  0
   -3.2384    0.0937    0.0000 C   0  0  0  0  0  0  0  0  0  0  0  0
   -4.6493    0.6030    0.0000 C   0  0  0  0  0  0  0  0  0  0  0  0
   -4.9138    2.0795    0.0000 N   0  0  0  0  0  0  0  0  0  0  0  0
   -6.3247    2.5887    0.0000 C   0  0  0  0  0  0  0  0  0  0  0  0
   -7.4712    1.6215    0.0000 C   0  0  0  0  0  0  0  0  0  0  0  0
   -7.2067    0.1450    0.0000 C   0  0  0  0  0  0  0  0  0  0  0  0
   -5.7958   -0.3643    0.0000 C   0  0  0  0  0  0  0  0  0  0  0  0
   -5.5314   -1.8408    0.0000 C   0  0  0  0  0  0  0  0  0  0  0  0
   -5.2669   -3.3173    0.0000 F   0  0  0  0  0  0  0  0  0  0  0  0
   -7.0079   -2.1052    0.0000 F   0  0  0  0  0  0  0  0  0  0  0  0
   -4.0549   -1.5764    0.0000 F   0  0  0  0  0  0  0  0  0  0  0  0
   -2.9740   -1.3828    0.0000 C   0  0  0  0  0  0  0  0  0  0  0  0
   -1.5631   -1.8920    0.0000 N   0  0  0  0  0  0  0  0  0  0  0  0
   -0.4166   -0.9247    0.0000 C   0  0  0  0  0  0  0  0  0  0  0  0
    0.9943   -1.4340    0.0000 N   0  0  0  0  0  0  0  0  0  0  0  0
    6.1091   -0.5179    0.0000 C   0  0  0  0  0  0  0  0  0  0  0  0
    6.3735   -1.9945    0.0000 C   0  0  0  0  0  0  0  0  0  0  0  0
  1  2  1  0
  2  3  1  0
  2  4  1  0
  4  5  1  0
  5  6  1  0
  6  7  1  0
  7  8  2  0
  8  9  1  0
  9 10  2  0
 10 11  1  0
 11 12  2  0
 12 13  1  0
 13 14  1  0
 14 15  2  0
 14 16  1  0
 16 17  2  0
 17 18  1  0
 18 19  1  0
 19 20  2  0
 20 21  1  0
 21 22  2  0
 22 23  1  0
 23 24  2  0
 24 25  1  0
 25 26  1  0
 25 27  1  0
 25 28  1  0
 18 29  2  0
 29 30  1  0
 30 31  2  0
 31 32  1  0
  6 33  1  0
 33 34  1  0
 34  2  1  0
 12  7  1  0
 31 16  1  0
 24 19  1  0
M  END
>  <BrandName>  (255) 


>  <Applicants>  (255) 
Novartis

>  <CHEMBL_ID>  (255) 
CHEMBL3982723

>  <Canonical_Smiles>  (255) 
CC1(N)CCN(c2cccnc2NC(=O)c2nc(-c3ncccc3C(F)(F)F)cnc2N)CC1

>  <Chirality>  (255) 
Achiral Molecule

>  <First_Approval>  (255) 
nan

>  <Phase>  (255) 
2.5

>  <SC_Patent>  (255) 
nan

>  <Synonyms>  (255) 
DAROVASERTIB | IDE-196 | IDE196 | LXS-196 | LXS196 | NVP-LXS-196

>  <Withdrawn>  (255) 
{''}

>  <Indications>  (255) 
nan

>  <Type>  (255) 
nan

>  <targets_id>  (255) 
nan

>  <Inchi>  (255) 
InChI=1S/C22H23F3N8O/c1-21(27)6-10-33(11-7-21)15-5-3-9-29-19(15)32-20(34)17-18(26)30-12-14(31-17)16-13(22(23,24)25)4-2-8-28-16/h2-5,8-9,12H,6-7,10-11,27H2,1H3,(H2,26,30)(H,29,32,34)

>  <stdInchikey>  (255) 
XXJXHXJWQSCNPX-UHFFFAOYSA-N

>  <csid>  (255) 
57617794

>  <Links>  (255) 
|http://www.chemspider.com/Chemical-Structure.57617794.html|https://www.ebi.ac.uk/chembldb/compound/inspect/CHEMBL3982723|https://pubchem.ncbi.nlm.nih.gov/compound/118873253|https://go.drugbank.com/drugs/DB16059|https://www.rcsb.org/ligand/W39|https://www.ebi.ac.uk/pdbe-srv/pdbechem/chemicalCompound/show/W39|https://www.guidetopharmacology.org/GRAC/LigandDisplayForward?11186|https://zinc15.docking.org/substances/ZINC000584641445|https://precision.fda.gov/uniisearch/srs/unii/E0YF0M8O09|https://www.bindingdb.org/bind/chemsearch/marvin/MolStructure.jsp?monomerid=251460

>  <LinkName>  (255) 
|ChemSpider|ChEMBL|PubChem|DrugBank|RCSB|PDBe|Guide to Pharmacology|ZINC|FDA SRS|BindingDB

>  <lig_pdb_ID>  (255) 
W39

>  <pdb_IDs>  (255) 
8uak

>  <indicationDB>  (255) 


>  <uniprotId>  (255) 


>  <indicationG2P>  (255) 
None

>  <MW>  (255) 
472.2

>  <HBA>  (255) 
8

>  <HBD>  (255) 
3

>  <NRB>  (255) 
4

>  <TPSA>  (255) 
135.9

>  <LogP>  (255) 
3.1

>  <RoF>  (255) 
0

>  <Melting point>  (255) 
nan

>  <Targets>  (255) 
nan

>  <Kinase families>  (255) 


>  <FDA_approved>  (255) 


$$$$
Varlitinib
     RDKit          2D

 32 36  0  0  0  0  0  0  0  0999 V2000
   -3.0266    4.4079    0.0000 C   0  0  0  0  0  0  0  0  0  0  0  0
   -4.2824    3.5876    0.0000 C   0  0  0  0  0  0  0  0  0  0  0  0
   -5.6842    4.1213    0.0000 C   0  0  0  0  0  0  0  0  0  0  0  0
   -6.6251    2.9531    0.0000 O   0  0  0  0  0  0  0  0  0  0  0  0
   -5.8047    1.6973    0.0000 C   0  0  0  0  0  0  0  0  0  0  0  0
   -4.3569    2.0894    0.0000 N   0  0  0  0  0  0  0  0  0  0  0  0
   -6.3385    0.2954    0.0000 N   0  0  0  0  0  0  0  0  0  0  0  0
   -5.3914   -0.8677    0.0000 C   0  0  0  0  0  0  0  0  0  0  0  0
   -5.9251   -2.2695    0.0000 C   0  0  0  0  0  0  0  0  0  0  0  0
   -4.9780   -3.4327    0.0000 C   0  0  0  0  0  0  0  0  0  0  0  0
   -3.4971   -3.1941    0.0000 C   0  0  0  0  0  0  0  0  0  0  0  0
   -2.9633   -1.7922    0.0000 C   0  0  0  0  0  0  0  0  0  0  0  0
   -3.9105   -0.6291    0.0000 C   0  0  0  0  0  0  0  0  0  0  0  0
   -1.4825   -1.5536    0.0000 C   0  0  0  0  0  0  0  0  0  0  0  0
   -0.5353   -2.7168    0.0000 N   0  0  0  0  0  0  0  0  0  0  0  0
   -1.0691   -4.1186    0.0000 C   0  0  0  0  0  0  0  0  0  0  0  0
   -2.5500   -4.3572    0.0000 N   0  0  0  0  0  0  0  0  0  0  0  0
   -0.9487   -0.1518    0.0000 N   0  0  0  0  0  0  0  0  0  0  0  0
    0.5322    0.0869    0.0000 C   0  0  0  0  0  0  0  0  0  0  0  0
    1.4793   -1.0763    0.0000 C   0  0  0  0  0  0  0  0  0  0  0  0
    2.9602   -0.8376    0.0000 C   0  0  0  0  0  0  0  0  0  0  0  0
    3.4940    0.5642    0.0000 C   0  0  0  0  0  0  0  0  0  0  0  0
    2.5469    1.7273    0.0000 C   0  0  0  0  0  0  0  0  0  0  0  0
    1.0660    1.4887    0.0000 C   0  0  0  0  0  0  0  0  0  0  0  0
    3.0807    3.1292    0.0000 Cl  0  0  0  0  0  0  0  0  0  0  0  0
    4.9749    0.8028    0.0000 O   0  0  0  0  0  0  0  0  0  0  0  0
    5.9220   -0.3603    0.0000 C   0  0  0  0  0  0  0  0  0  0  0  0
    7.4029   -0.1217    0.0000 C   0  0  0  0  0  0  0  0  0  0  0  0
    8.0803    1.2166    0.0000 N   0  0  0  0  0  0  0  0  0  0  0  0
    9.5624    0.9860    0.0000 C   0  0  0  0  0  0  0  0  0  0  0  0
    9.8011   -0.4949    0.0000 C   0  0  0  0  0  0  0  0  0  0  0  0
    8.4664   -1.1795    0.0000 S   0  0  0  0  0  0  0  0  0  0  0  0
  2  1  1  1
  2  3  1  0
  3  4  1  0
  4  5  1  0
  5  6  2  0
  5  7  1  0
  7  8  1  0
  8  9  2  0
  9 10  1  0
 10 11  2  0
 11 12  1  0
 12 13  2  0
 12 14  1  0
 14 15  2  0
 15 16  1  0
 16 17  2  0
 14 18  1  0
 18 19  1  0
 19 20  2  0
 20 21  1  0
 21 22  2  0
 22 23  1  0
 23 24  2  0
 23 25  1  0
 22 26  1  0
 26 27  1  0
 27 28  1  0
 28 29  2  0
 29 30  1  0
 30 31  2  0
 31 32  1  0
  6  2  1  0
 13  8  1  0
 17 11  1  0
 24 19  1  0
 32 28  1  0
M  END
>  <BrandName>  (256) 


>  <Applicants>  (256) 
Array Biopharma

>  <CHEMBL_ID>  (256) 
CHEMBL2103842

>  <Canonical_Smiles>  (256) 
C[C@@H]1COC(=N1)Nc2ccc3c(c2)c(ncn3)Nc4ccc(c(c4)Cl)OCc5nccs5

>  <Chirality>  (256) 
Single Stereoisomer

>  <First_Approval>  (256) 
nan

>  <Phase>  (256) 
2.5

>  <SC_Patent>  (256) 
nan

>  <Synonyms>  (256) 
AR-00334543 | ARRY-334543 | ARRY-543 | ASLAN-001 | ASLAN001 | VARLITINIB

>  <Withdrawn>  (256) 
nan

>  <Indications>  (256) 
Investigated for use/treatment in cancer/tumors (unspecified).

>  <Type>  (256) 
nan

>  <targets_id>  (256) 
P00533|P04626

>  <Inchi>  (256) 
InChI=1S/C22H19ClN6O2S/c1-13-10-31-22(27-13)29-14-2-4-18-16(8-14)21(26-12-25-18)28-15-3-5-19(17(23)9-15)30-11-20-24-6-7-32-20/h2-9,12-13H,10-11H2,1H3,(H,27,29)(H,25,26,28)/t13-/m1/s1

>  <stdInchikey>  (256) 
UWXSAYUXVSFDBQ-CYBMUJFWSA-N

>  <csid>  (256) 
25027380

>  <Links>  (256) 
|http://www.chemspider.com/Chemical-Structure.25027380.html|https://www.ebi.ac.uk/chembldb/compound/inspect/CHEMBL2103842|https://pubchem.ncbi.nlm.nih.gov/compound/42642648|https://go.drugbank.com/drugs/DB05944|https://www.guidetopharmacology.org/GRAC/LigandDisplayForward?7645|https://zinc15.docking.org/substances/ZINC000013980035|https://precision.fda.gov/uniisearch/srs/unii/846Y8197W1|https://www.bindingdb.org/bind/chemsearch/marvin/MolStructure.jsp?monomerid=50205268

>  <LinkName>  (256) 
|ChemSpider|ChEMBL|PubChem|DrugBank|Guide to Pharmacology|ZINC|FDA SRS|BindingDB

>  <lig_pdb_ID>  (256) 


>  <pdb_IDs>  (256) 


>  <indicationDB>  (256) 


>  <uniprotId>  (256) 


>  <indicationG2P>  (256) 
None

>  <MW>  (256) 
466.1

>  <HBA>  (256) 
9

>  <HBD>  (256) 
2

>  <NRB>  (256) 
6

>  <TPSA>  (256) 
93.5

>  <LogP>  (256) 
5.2

>  <RoF>  (256) 
1

>  <Melting point>  (256) 
nan

>  <Targets>  (256) 
EGFR; ERBB2

>  <Kinase families>  (256) 
Tyr

>  <FDA_approved>  (256) 


$$$$
Opaganib
     RDKit          2D

 27 31  0  0  0  0  0  0  0  0999 V2000
   -2.0968   -1.2807    0.0000 C   0  0  0  0  0  0  0  0  0  0  0  0
   -2.4597   -2.7362    0.0000 C   0  0  0  0  0  0  0  0  0  0  0  0
   -3.9016   -3.1496    0.0000 C   0  0  0  0  0  0  0  0  0  0  0  0
   -4.9806   -2.1075    0.0000 C   0  0  0  0  0  0  0  0  0  0  0  0
   -4.6177   -0.6521    0.0000 C   0  0  0  0  0  0  0  0  0  0  0  0
   -3.1758   -0.2387    0.0000 C   0  0  0  0  0  0  0  0  0  0  0  0
   -2.8128    1.2167    0.0000 C   0  0  0  0  0  0  0  0  0  0  0  0
   -1.3709    1.6301    0.0000 C   0  0  0  0  0  0  0  0  0  0  0  0
   -1.0080    3.0856    0.0000 C   0  0  0  0  0  0  0  0  0  0  0  0
   -2.0870    4.1276    0.0000 C   0  0  0  0  0  0  0  0  0  0  0  0
   -3.5289    3.7142    0.0000 C   0  0  0  0  0  0  0  0  0  0  0  0
   -3.8918    2.2588    0.0000 C   0  0  0  0  0  0  0  0  0  0  0  0
   -1.7474    0.9510    0.0000 C   0  0  0  0  0  0  0  0  0  0  0  0
   -0.2919    0.5881    0.0000 C   0  0  0  0  0  0  0  0  0  0  0  0
    0.0710    2.0435    0.0000 C   0  0  0  0  0  0  0  0  0  0  0  0
   -1.7339    0.1747    0.0000 C   0  0  0  0  0  0  0  0  0  0  0  0
    0.7870   -0.4539    0.0000 C   0  0  0  0  0  0  0  0  0  0  0  0
    0.4241   -1.9093    0.0000 O   0  0  0  0  0  0  0  0  0  0  0  0
    2.2289   -0.0405    0.0000 N   0  0  0  0  0  0  0  0  0  0  0  0
    3.3079   -1.0825    0.0000 C   0  0  0  0  0  0  0  0  0  0  0  0
    4.7498   -0.6691    0.0000 C   0  0  0  0  0  0  0  0  0  0  0  0
    5.8288   -1.7111    0.0000 C   0  0  0  0  0  0  0  0  0  0  0  0
    7.2707   -1.2977    0.0000 C   0  0  0  0  0  0  0  0  0  0  0  0
    7.6336    0.1577    0.0000 N   0  0  0  0  0  0  0  0  0  0  0  0
    6.5547    1.1997    0.0000 C   0  0  0  0  0  0  0  0  0  0  0  0
    5.1127    0.7863    0.0000 C   0  0  0  0  0  0  0  0  0  0  0  0
   -4.2646   -4.6050    0.0000 Cl  0  0  0  0  0  0  0  0  0  0  0  0
  1  2  2  0
  2  3  1  0
  3  4  2  0
  4  5  1  0
  5  6  2  0
  6  7  1  0
  7  8  1  0
  8  9  1  0
  9 10  1  0
 10 11  1  0
 11 12  1  0
 11 13  1  0
 13 14  1  0
 14 15  1  0
 14 16  1  0
 14 17  1  0
 17 18  2  0
 17 19  1  0
 19 20  1  0
 20 21  1  0
 21 22  2  0
 22 23  1  0
 23 24  2  0
 24 25  1  0
 25 26  2  0
  3 27  1  0
  6  1  1  0
 12  7  1  0
 16  7  1  0
 15  9  1  0
 26 21  1  0
M  END
>  <BrandName>  (257) 


>  <Applicants>  (257) 
RedHill Biopharma

>  <CHEMBL_ID>  (257) 
CHEMBL2158685

>  <Canonical_Smiles>  (257) 
c1cc(ccc1C23CC4CC(C2)CC(C4)(C3)C(=O)NCc5ccncc5)Cl

>  <Chirality>  (257) 
Achiral Molecule

>  <First_Approval>  (257) 
nan

>  <Phase>  (257) 
2.5

>  <SC_Patent>  (257) 
nan

>  <Synonyms>  (257) 
ABC 294640 | ABC-294640 | ABC294640 | OPAGANIB

>  <Withdrawn>  (257) 
{''}

>  <Indications>  (257) 
nan

>  <Type>  (257) 
nan

>  <targets_id>  (257) 
nan

>  <Inchi>  (257) 
InChI=1S/C23H25ClN2O/c24-20-3-1-19(2-4-20)22-10-17-9-18(11-22)13-23(12-17,15-22)21(27)26-14-16-5-7-25-8-6-16/h1-8,17-18H,9-15H2,(H,26,27)

>  <stdInchikey>  (257) 
CAOTVXGYTWCKQE-UHFFFAOYSA-N

>  <csid>  (257) 
13079494

>  <Links>  (257) 
|http://www.chemspider.com/Chemical-Structure.13079494.html|https://www.ebi.ac.uk/chembldb/compound/inspect/CHEMBL2158685|https://pubchem.ncbi.nlm.nih.gov/compound/15604015|https://go.drugbank.com/drugs/DB12764|https://www.guidetopharmacology.org/GRAC/LigandDisplayForward?6624|https://precision.fda.gov/uniisearch/srs/unii/DRG21OQ517|https://www.bindingdb.org/bind/chemsearch/marvin/MolStructure.jsp?monomerid=50393642

>  <LinkName>  (257) 
|ChemSpider|ChEMBL|PubChem|DrugBank|Guide to Pharmacology|FDA SRS|BindingDB

>  <lig_pdb_ID>  (257) 


>  <pdb_IDs>  (257) 


>  <indicationDB>  (257) 


>  <uniprotId>  (257) 


>  <indicationG2P>  (257) 
None

>  <MW>  (257) 
380.2

>  <HBA>  (257) 
2

>  <HBD>  (257) 
1

>  <NRB>  (257) 
4

>  <TPSA>  (257) 
42.0

>  <LogP>  (257) 
4.9

>  <RoF>  (257) 
0

>  <Melting point>  (257) 
nan

>  <Targets>  (257) 
nan

>  <Kinase families>  (257) 


>  <FDA_approved>  (257) 


$$$$
Rociletinib
     RDKit          2D

 40 43  0  0  0  0  0  0  0  0999 V2000
  -10.9762    1.5390    0.0000 C   0  0  0  0  0  0  0  0  0  0  0  0
  -10.2200    0.2436    0.0000 C   0  0  0  0  0  0  0  0  0  0  0  0
  -10.9638   -1.0590    0.0000 O   0  0  0  0  0  0  0  0  0  0  0  0
   -8.7200    0.2507    0.0000 N   0  0  0  0  0  0  0  0  0  0  0  0
   -7.9762    1.5533    0.0000 C   0  0  0  0  0  0  0  0  0  0  0  0
   -6.4763    1.5605    0.0000 C   0  0  0  0  0  0  0  0  0  0  0  0
   -5.7201    0.2650    0.0000 N   0  0  0  0  0  0  0  0  0  0  0  0
   -6.4639   -1.0376    0.0000 C   0  0  0  0  0  0  0  0  0  0  0  0
   -7.9639   -1.0447    0.0000 C   0  0  0  0  0  0  0  0  0  0  0  0
   -4.2201    0.2722    0.0000 C   0  0  0  0  0  0  0  0  0  0  0  0
   -3.4639   -1.0233    0.0000 C   0  0  0  0  0  0  0  0  0  0  0  0
   -1.9639   -1.0161    0.0000 C   0  0  0  0  0  0  0  0  0  0  0  0
   -1.2201    0.2865    0.0000 C   0  0  0  0  0  0  0  0  0  0  0  0
   -1.9763    1.5819    0.0000 C   0  0  0  0  0  0  0  0  0  0  0  0
   -3.4763    1.5748    0.0000 C   0  0  0  0  0  0  0  0  0  0  0  0
   -1.2325    2.8845    0.0000 O   0  0  0  0  0  0  0  0  0  0  0  0
   -1.9887    4.1800    0.0000 C   0  0  0  0  0  0  0  0  0  0  0  0
    0.2799    0.2936    0.0000 N   0  0  0  0  0  0  0  0  0  0  0  0
    1.0360   -1.0018    0.0000 C   0  0  0  0  0  0  0  0  0  0  0  0
    0.2922   -2.3044    0.0000 N   0  0  0  0  0  0  0  0  0  0  0  0
    1.0484   -3.5999    0.0000 C   0  0  0  0  0  0  0  0  0  0  0  0
    2.5484   -3.5927    0.0000 C   0  0  0  0  0  0  0  0  0  0  0  0
    3.2922   -2.2901    0.0000 C   0  0  0  0  0  0  0  0  0  0  0  0
    2.5360   -0.9947    0.0000 N   0  0  0  0  0  0  0  0  0  0  0  0
    4.7922   -2.2830    0.0000 N   0  0  0  0  0  0  0  0  0  0  0  0
    5.5360   -0.9804    0.0000 C   0  0  0  0  0  0  0  0  0  0  0  0
    7.0360   -0.9732    0.0000 C   0  0  0  0  0  0  0  0  0  0  0  0
    7.7798    0.3294    0.0000 C   0  0  0  0  0  0  0  0  0  0  0  0
    7.0236    1.6248    0.0000 C   0  0  0  0  0  0  0  0  0  0  0  0
    5.5236    1.6177    0.0000 C   0  0  0  0  0  0  0  0  0  0  0  0
    4.7798    0.3151    0.0000 C   0  0  0  0  0  0  0  0  0  0  0  0
    4.7674    2.9131    0.0000 N   0  0  0  0  0  0  0  0  0  0  0  0
    5.5112    4.2157    0.0000 C   0  0  0  0  0  0  0  0  0  0  0  0
    7.0112    4.2228    0.0000 O   0  0  0  0  0  0  0  0  0  0  0  0
    4.7550    5.5112    0.0000 C   0  0  0  0  0  0  0  0  0  0  0  0
    5.4988    6.8137    0.0000 C   0  0  0  0  0  0  0  0  0  0  0  0
    3.3046   -4.8882    0.0000 C   0  0  0  0  0  0  0  0  0  0  0  0
    4.0608   -6.1836    0.0000 F   0  0  0  0  0  0  0  0  0  0  0  0
    2.0091   -5.6444    0.0000 F   0  0  0  0  0  0  0  0  0  0  0  0
    4.6000   -4.1320    0.0000 F   0  0  0  0  0  0  0  0  0  0  0  0
  1  2  1  0
  2  3  2  0
  2  4  1  0
  4  5  1  0
  5  6  1  0
  6  7  1  0
  7  8  1  0
  8  9  1  0
  7 10  1  0
 10 11  2  0
 11 12  1  0
 12 13  2  0
 13 14  1  0
 14 15  2  0
 14 16  1  0
 16 17  1  0
 13 18  1  0
 18 19  1  0
 19 20  2  0
 20 21  1  0
 21 22  2  0
 22 23  1  0
 23 24  2  0
 23 25  1  0
 25 26  1  0
 26 27  2  0
 27 28  1  0
 28 29  2  0
 29 30  1  0
 30 31  2  0
 30 32  1  0
 32 33  1  0
 33 34  2  0
 33 35  1  0
 35 36  2  0
 22 37  1  0
 37 38  1  0
 37 39  1  0
 37 40  1  0
  9  4  1  0
 15 10  1  0
 24 19  1  0
 31 26  1  0
M  END
>  <BrandName>  (258) 


>  <Applicants>  (258) 
Clovis Oncology

>  <CHEMBL_ID>  (258) 
CHEMBL3545308

>  <Canonical_Smiles>  (258) 
CC(=O)N1CCN(CC1)c2ccc(c(c2)OC)Nc3ncc(c(n3)Nc4cccc(c4)NC(=O)C=C)C(F)(F)F

>  <Chirality>  (258) 
Achiral Molecule

>  <First_Approval>  (258) 
nan

>  <Phase>  (258) 
3.0

>  <SC_Patent>  (258) 
nan

>  <Synonyms>  (258) 
AVL-301 | CNX-419 | CO-1686 | CS-1631 | ROCILETINIB

>  <Withdrawn>  (258) 
{''}

>  <Indications>  (258) 
nan

>  <Type>  (258) 
1

>  <targets_id>  (258) 
P00533

>  <Inchi>  (258) 
InChI=1S/C27H28F3N7O3/c1-4-24(39)32-18-6-5-7-19(14-18)33-25-21(27(28,29)30)16-31-26(35-25)34-22-9-8-20(15-23(22)40-3)37-12-10-36(11-13-37)17(2)38/h4-9,14-16H,1,10-13H2,2-3H3,(H,32,39)(H2,31,33,34,35)

>  <stdInchikey>  (258) 
HUFOZJXAKZVRNJ-UHFFFAOYSA-N

>  <csid>  (258) 
30646712

>  <Links>  (258) 
|http://www.chemspider.com/Chemical-Structure.30646712.html|https://www.ebi.ac.uk/chembldb/compound/inspect/CHEMBL3545308|https://pubchem.ncbi.nlm.nih.gov/compound/57335384|https://go.drugbank.com/drugs/DB11907|https://www.rcsb.org/ligand/8JC|https://www.ebi.ac.uk/pdbe-srv/pdbechem/chemicalCompound/show/8JC|https://www.guidetopharmacology.org/GRAC/LigandDisplayForward?7966|https://zinc15.docking.org/substances/ZINC000098043800|https://precision.fda.gov/uniisearch/srs/unii/72AH61702G|https://www.bindingdb.org/bind/chemsearch/marvin/MolStructure.jsp?monomerid=149404

>  <LinkName>  (258) 
|ChemSpider|ChEMBL|PubChem|DrugBank|RCSB|PDBe|Guide to Pharmacology|ZINC|FDA SRS|BindingDB

>  <lig_pdb_ID>  (258) 
8JC

>  <pdb_IDs>  (258) 
5xdk 5xdl

>  <indicationDB>  (258) 


>  <uniprotId>  (258) 


>  <indicationG2P>  (258) 
None

>  <MW>  (258) 
555.2

>  <HBA>  (258) 
8

>  <HBD>  (258) 
3

>  <NRB>  (258) 
8

>  <TPSA>  (258) 
111.7

>  <LogP>  (258) 
4.8

>  <RoF>  (258) 
1

>  <Melting point>  (258) 
nan

>  <Targets>  (258) 
EGFR

>  <Kinase families>  (258) 
Tyr

>  <FDA_approved>  (258) 


$$$$
Rovadicitinib
     RDKit          2D

 24 27  0  0  0  0  0  0  0  0999 V2000
    5.9829   -2.8197    0.0000 N   0  0  0  0  0  0  0  0  0  0  0  0
    4.5406   -2.4078    0.0000 C   0  0  0  0  0  0  0  0  0  0  0  0
    3.0983   -1.9959    0.0000 C   0  0  0  0  0  0  0  0  0  0  0  0
    2.7338   -0.5408    0.0000 C   0  0  0  0  0  0  0  0  0  0  0  0
    3.8117    0.5023    0.0000 C   0  0  0  0  0  0  0  0  0  0  0  0
    3.6014    1.9875    0.0000 C   0  0  0  0  0  0  0  0  0  0  0  0
    4.9489    2.6465    0.0000 C   0  0  0  0  0  0  0  0  0  0  0  0
    5.9920    1.5686    0.0000 C   0  0  0  0  0  0  0  0  0  0  0  0
    5.2892    0.2434    0.0000 C   0  0  0  0  0  0  0  0  0  0  0  0
    1.2915   -0.1289    0.0000 N   0  0  0  0  0  0  0  0  0  0  0  0
    0.1105   -1.0537    0.0000 C   0  0  0  0  0  0  0  0  0  0  0  0
   -1.1340   -0.2162    0.0000 C   0  0  0  0  0  0  0  0  0  0  0  0
   -2.5430   -0.7307    0.0000 C   0  0  0  0  0  0  0  0  0  0  0  0
   -2.8019   -2.2082    0.0000 N   0  0  0  0  0  0  0  0  0  0  0  0
   -4.2109   -2.7228    0.0000 C   0  0  0  0  0  0  0  0  0  0  0  0
   -5.3610   -1.7598    0.0000 N   0  0  0  0  0  0  0  0  0  0  0  0
   -5.1021   -0.2823    0.0000 C   0  0  0  0  0  0  0  0  0  0  0  0
   -6.0268    0.8987    0.0000 N   0  0  0  0  0  0  0  0  0  0  0  0
   -5.1893    2.1432    0.0000 C   0  0  0  0  0  0  0  0  0  0  0  0
   -3.7470    1.7312    0.0000 C   0  0  0  0  0  0  0  0  0  0  0  0
   -3.6931    0.2322    0.0000 C   0  0  0  0  0  0  0  0  0  0  0  0
   -0.7221    1.2261    0.0000 C   0  0  0  0  0  0  0  0  0  0  0  0
   -1.6468    2.4072    0.0000 N   0  0  0  0  0  0  0  0  0  0  0  0
    0.7770    1.2801    0.0000 N   0  0  0  0  0  0  0  0  0  0  0  0
  1  2  3  0
  2  3  1  0
  4  3  1  1
  4  5  1  0
  5  6  1  0
  6  7  1  0
  7  8  1  0
  8  9  1  0
  4 10  1  0
 10 11  1  0
 11 12  2  0
 12 13  1  0
 13 14  2  0
 14 15  1  0
 15 16  2  0
 16 17  1  0
 17 18  1  0
 18 19  1  0
 19 20  2  0
 20 21  1  0
 12 22  1  0
 22 23  1  0
 22 24  2  0
  9  5  1  0
 24 10  1  0
 21 13  1  0
 21 17  2  0
M  END
>  <BrandName>  (259) 


>  <Applicants>  (259) 
('Chia Tai Tianqing Pharmaceutical',)

>  <CHEMBL_ID>  (259) 
CHEMBL5314485

>  <Canonical_Smiles>  (259) 
N#CC[C@H](C1CCCC1)n1cc(-c2ncnc3[nH]ccc23)c(N)n1

>  <Chirality>  (259) 
Unknown

>  <First_Approval>  (259) 
nan

>  <Phase>  (259) 
3.0

>  <SC_Patent>  (259) 
nan

>  <Synonyms>  (259) 
ROVADICITINIB

>  <Withdrawn>  (259) 
{''}

>  <Indications>  (259) 
nan

>  <Type>  (259) 
nan

>  <targets_id>  (259) 
nan

>  <Inchi>  (259) 
InChI=1S/C17H19N7/c18-7-5-14(11-3-1-2-4-11)24-9-13(16(19)23-24)15-12-6-8-20-17(12)22-10-21-15/h6,8-11,14H,1-5H2,(H2,19,23)(H,20,21,22)/t14-/m1/s1

>  <stdInchikey>  (259) 
ZGENDZDSLYKCSI-CQSZACIVSA-N

>  <csid>  (259) 
129307129

>  <Links>  (259) 
|http://www.chemspider.com/Chemical-Structure.129307129.html|https://www.ebi.ac.uk/chembldb/compound/inspect/CHEMBL5314485|https://pubchem.ncbi.nlm.nih.gov/compound/121427554

>  <LinkName>  (259) 
|ChemSpider|ChEMBL|PubChem

>  <lig_pdb_ID>  (259) 


>  <pdb_IDs>  (259) 


>  <indicationDB>  (259) 


>  <uniprotId>  (259) 


>  <indicationG2P>  (259) 


>  <MW>  (259) 
321.2

>  <HBA>  (259) 
6

>  <HBD>  (259) 
2

>  <NRB>  (259) 
4

>  <TPSA>  (259) 
109.2

>  <LogP>  (259) 
3.0

>  <RoF>  (259) 
0

>  <Melting point>  (259) 
nan

>  <Targets>  (259) 
nan

>  <Kinase families>  (259) 


>  <FDA_approved>  (259) 


$$$$
Ruboxistaurin
     RDKit          2D

 35 40  0  0  0  0  0  0  0  0999 V2000
   -2.7478   -7.6916    0.0000 C   0  0  0  0  0  0  0  0  0  0  0  0
   -2.4979   -6.2125    0.0000 N   0  0  0  0  0  0  0  0  0  0  0  0
   -3.6538   -5.2566    0.0000 C   0  0  0  0  0  0  0  0  0  0  0  0
   -1.0920   -5.6895    0.0000 C   0  0  0  0  0  0  0  0  0  0  0  0
   -0.8421   -4.2104    0.0000 C   0  0  0  0  0  0  0  0  0  0  0  0
    0.6554   -4.1249    0.0000 C   0  0  0  0  0  0  0  0  0  0  0  0
    1.9676   -3.3982    0.0000 C   0  0  0  0  0  0  0  0  0  0  0  0
    2.8061   -1.6771    0.0000 N   0  0  0  0  0  0  0  0  0  0  0  0
    1.8567   -0.5158    0.0000 C   0  0  0  0  0  0  0  0  0  0  0  0
    2.6678    0.7460    0.0000 C   0  0  0  0  0  0  0  0  0  0  0  0
    4.1185    0.3645    0.0000 C   0  0  0  0  0  0  0  0  0  0  0  0
    4.2040   -1.1330    0.0000 C   0  0  0  0  0  0  0  0  0  0  0  0
    5.5436   -1.8078    0.0000 C   0  0  0  0  0  0  0  0  0  0  0  0
    6.7978   -0.9850    0.0000 C   0  0  0  0  0  0  0  0  0  0  0  0
    6.7124    0.5126    0.0000 C   0  0  0  0  0  0  0  0  0  0  0  0
    5.3727    1.1873    0.0000 C   0  0  0  0  0  0  0  0  0  0  0  0
    1.6673    1.8636    0.0000 C   0  0  0  0  0  0  0  0  0  0  0  0
    0.2809    2.4363    0.0000 C   0  0  0  0  0  0  0  0  0  0  0  0
   -1.2166    2.3508    0.0000 C   0  0  0  0  0  0  0  0  0  0  0  0
   -2.5288    1.6241    0.0000 C   0  0  0  0  0  0  0  0  0  0  0  0
   -3.3957    0.3999    0.0000 N   0  0  0  0  0  0  0  0  0  0  0  0
   -4.0019    1.7720    0.0000 C   0  0  0  0  0  0  0  0  0  0  0  0
   -2.8844    2.7725    0.0000 C   0  0  0  0  0  0  0  0  0  0  0  0
   -3.1921    4.2406    0.0000 C   0  0  0  0  0  0  0  0  0  0  0  0
   -4.6174    4.7081    0.0000 C   0  0  0  0  0  0  0  0  0  0  0  0
   -5.7349    3.7076    0.0000 C   0  0  0  0  0  0  0  0  0  0  0  0
   -5.4272    2.2395    0.0000 C   0  0  0  0  0  0  0  0  0  0  0  0
   -3.6456   -1.0791    0.0000 C   0  0  0  0  0  0  0  0  0  0  0  0
   -3.2290   -2.5201    0.0000 C   0  0  0  0  0  0  0  0  0  0  0  0
   -2.2285   -3.6377    0.0000 O   0  0  0  0  0  0  0  0  0  0  0  0
    0.3972    3.9318    0.0000 C   0  0  0  0  0  0  0  0  0  0  0  0
   -0.7443    4.9049    0.0000 O   0  0  0  0  0  0  0  0  0  0  0  0
    1.8555    4.2833    0.0000 N   0  0  0  0  0  0  0  0  0  0  0  0
    2.6404    3.0051    0.0000 C   0  0  0  0  0  0  0  0  0  0  0  0
    4.1359    2.8887    0.0000 O   0  0  0  0  0  0  0  0  0  0  0  0
  1  2  1  0
  2  3  1  0
  2  4  1  0
  5  4  1  1
  5  6  1  0
  6  7  1  0
  7  8  1  0
  8  9  1  0
  9 10  2  0
 10 11  1  0
 11 12  2  0
 12 13  1  0
 13 14  2  0
 14 15  1  0
 15 16  2  0
 10 17  1  0
 17 18  2  0
 18 19  1  0
 19 20  2  0
 20 21  1  0
 21 22  1  0
 22 23  2  0
 23 24  1  0
 24 25  2  0
 25 26  1  0
 26 27  2  0
 21 28  1  0
 28 29  1  0
 29 30  1  0
 18 31  1  0
 31 32  2  0
 31 33  1  0
 33 34  1  0
 34 35  2  0
 30  5  1  0
 12  8  1  0
 16 11  1  0
 34 17  1  0
 23 19  1  0
 27 22  1  0
M  END
>  <BrandName>  (260) 
Arxxant

>  <Applicants>  (260) 
Eli Lilly

>  <CHEMBL_ID>  (260) 
CHEMBL91829

>  <Canonical_Smiles>  (260) 
CN(C)C[C@@H]1CCn2cc(c3c2cccc3)C4=C(c5cn(c6c5cccc6)CCO1)C(=O)NC4=O

>  <Chirality>  (260) 
Single Stereoisomer

>  <First_Approval>  (260) 
nan

>  <Phase>  (260) 
3.0

>  <SC_Patent>  (260) 
nan

>  <Synonyms>  (260) 
ARXXANT | LY-333531 | RUBOXISTAURIN | RUBOXISTAURINA | RUBOXISTAURINE

>  <Withdrawn>  (260) 
{''}

>  <Indications>  (260) 
nan

>  <Type>  (260) 
nan

>  <targets_id>  (260) 
nan

>  <Inchi>  (260) 
InChI=1S/C28H28N4O3/c1-30(2)15-18-11-12-31-16-21(19-7-3-5-9-23(19)31)25-26(28(34)29-27(25)33)22-17-32(13-14-35-18)24-10-6-4-8-20(22)24/h3-10,16-18H,11-15H2,1-2H3,(H,29,33,34)/t18-/m0/s1

>  <stdInchikey>  (260) 
ZCBUQCWBWNUWSU-SFHVURJKSA-N

>  <csid>  (260) 
135727

>  <Links>  (260) 
|http://www.chemspider.com/Chemical-Structure.135727.html|https://www.ebi.ac.uk/chembldb/compound/inspect/CHEMBL91829|https://pubchem.ncbi.nlm.nih.gov/compound/153999|https://go.drugbank.com/drugs/DB11829|https://www.rcsb.org/ligand/LY4|https://www.ebi.ac.uk/pdbe-srv/pdbechem/chemicalCompound/show/LY4|https://www.guidetopharmacology.org/GRAC/LigandDisplayForward?5263|https://zinc15.docking.org/substances/ZINC000003812168|https://precision.fda.gov/uniisearch/srs/unii/721809WQCP|https://www.bindingdb.org/bind/chemsearch/marvin/MolStructure.jsp?monomerid=50128281

>  <LinkName>  (260) 
|ChemSpider|ChEMBL|PubChem|DrugBank|RCSB|PDBe|Guide to Pharmacology|ZINC|FDA SRS|BindingDB

>  <lig_pdb_ID>  (260) 
LY4

>  <pdb_IDs>  (260) 
1uu3 2j2i

>  <indicationDB>  (260) 


>  <uniprotId>  (260) 


>  <indicationG2P>  (260) 
None

>  <MW>  (260) 
468.2

>  <HBA>  (260) 
6

>  <HBD>  (260) 
1

>  <NRB>  (260) 
2

>  <TPSA>  (260) 
68.5

>  <LogP>  (260) 
3.5

>  <RoF>  (260) 
0

>  <Melting point>  (260) 
nan

>  <Targets>  (260) 
nan

>  <Kinase families>  (260) 


>  <FDA_approved>  (260) 


$$$$
Lestaurtinib
     RDKit          2D

 33 40  0  0  0  0  0  0  0  0999 V2000
   -3.8150   -1.1685    0.0000 C   0  0  0  0  0  0  0  0  0  0  0  0
   -2.3157   -1.1224    0.0000 C   0  0  0  0  0  0  0  0  0  0  0  0
   -2.7993   -2.5423    0.0000 C   0  0  0  0  0  0  0  0  0  0  0  0
   -1.5983   -3.4410    0.0000 C   0  0  0  0  0  0  0  0  0  0  0  0
   -0.1516   -2.7418    0.0000 C   0  0  0  0  0  0  0  0  0  0  0  0
   -1.6236   -2.4532    0.0000 O   0  0  0  0  0  0  0  0  0  0  0  0
    0.9918   -1.7709    0.0000 N   0  0  0  0  0  0  0  0  0  0  0  0
    2.4320   -2.1904    0.0000 C   0  0  0  0  0  0  0  0  0  0  0  0
    3.0839   -3.5413    0.0000 C   0  0  0  0  0  0  0  0  0  0  0  0
    4.5798   -3.6521    0.0000 C   0  0  0  0  0  0  0  0  0  0  0  0
    5.4238   -2.4120    0.0000 C   0  0  0  0  0  0  0  0  0  0  0  0
    4.7718   -1.0611    0.0000 C   0  0  0  0  0  0  0  0  0  0  0  0
    3.2759   -0.9503    0.0000 C   0  0  0  0  0  0  0  0  0  0  0  0
    2.3573    0.2355    0.0000 C   0  0  0  0  0  0  0  0  0  0  0  0
    0.9457   -0.2717    0.0000 C   0  0  0  0  0  0  0  0  0  0  0  0
   -0.2553    0.6271    0.0000 C   0  0  0  0  0  0  0  0  0  0  0  0
   -1.7067    0.2485    0.0000 N   0  0  0  0  0  0  0  0  0  0  0  0
   -2.5153    1.5118    0.0000 C   0  0  0  0  0  0  0  0  0  0  0  0
   -3.9953    1.7563    0.0000 C   0  0  0  0  0  0  0  0  0  0  0  0
   -4.5235    3.1602    0.0000 C   0  0  0  0  0  0  0  0  0  0  0  0
   -3.5718    4.3197    0.0000 C   0  0  0  0  0  0  0  0  0  0  0  0
   -2.0919    4.0752    0.0000 C   0  0  0  0  0  0  0  0  0  0  0  0
   -1.5636    2.6713    0.0000 C   0  0  0  0  0  0  0  0  0  0  0  0
   -0.1669    2.1245    0.0000 C   0  0  0  0  0  0  0  0  0  0  0  0
    1.3342    2.6237    0.0000 C   0  0  0  0  0  0  0  0  0  0  0  0
    2.5352    1.7250    0.0000 C   0  0  0  0  0  0  0  0  0  0  0  0
    3.7610    2.5894    0.0000 C   0  0  0  0  0  0  0  0  0  0  0  0
    5.1809    2.1058    0.0000 O   0  0  0  0  0  0  0  0  0  0  0  0
    3.3177    4.0224    0.0000 N   0  0  0  0  0  0  0  0  0  0  0  0
    1.8178    4.0436    0.0000 C   0  0  0  0  0  0  0  0  0  0  0  0
   -4.1609   -1.9129    0.0000 C   0  0  0  0  0  0  0  0  0  0  0  0
   -5.3867   -2.7774    0.0000 O   0  0  0  0  0  0  0  0  0  0  0  0
   -3.5675   -3.8306    0.0000 O   0  0  0  0  0  0  0  0  0  0  0  0
  2  1  1  6
  2  3  1  0
  3  4  1  0
  5  4  1  1
  5  6  1  0
  5  7  1  0
  7  8  1  0
  8  9  2  0
  9 10  1  0
 10 11  2  0
 11 12  1  0
 12 13  2  0
 13 14  1  0
 14 15  2  0
 15 16  1  0
 16 17  1  0
 17 18  1  0
 18 19  2  0
 19 20  1  0
 20 21  2  0
 21 22  1  0
 22 23  2  0
 23 24  1  0
 24 25  1  0
 25 26  2  0
 26 27  1  0
 27 28  2  0
 27 29  1  0
 29 30  1  0
  3 31  1  0
 31 32  1  0
  3 33  1  1
  6  2  1  0
 17  2  1  0
 15  7  1  0
 13  8  1  0
 26 14  1  0
 24 16  2  0
 23 18  1  0
 30 25  1  0
M  END
>  <BrandName>  (261) 


>  <Applicants>  (261) 
Cephalon

>  <CHEMBL_ID>  (261) 
CHEMBL603469

>  <Canonical_Smiles>  (261) 
C[C@@]12[C@](C[C@@H](O1)n3c4ccccc4c5c3c6n2c7ccccc7c6c8c5C(=O)NC8)(CO)O

>  <Chirality>  (261) 
Single Stereoisomer

>  <First_Approval>  (261) 
nan

>  <Phase>  (261) 
3.0

>  <SC_Patent>  (261) 
nan

>  <Synonyms>  (261) 
A-154475 | A-154475.0 | CEP-701 | KT-555 | KT-5555 | KT5555 | LESTAURTINIB | SP-924 | SP924 | SPM-924

>  <Withdrawn>  (261) 
nan

>  <Indications>  (261) 
nan

>  <Type>  (261) 
nan

>  <targets_id>  (261) 
P36888

>  <Inchi>  (261) 
InChI=1S/C26H21N3O4/c1-25-26(32,12-30)10-18(33-25)28-16-8-4-2-6-13(16)20-21-15(11-27-24(21)31)19-14-7-3-5-9-17(14)29(25)23(19)22(20)28/h2-9,18,30,32H,10-12H2,1H3,(H,27,31)/t18-,25+,26+/m1/s1

>  <stdInchikey>  (261) 
UIARLYUEJFELEN-LROUJFHJSA-N

>  <csid>  (261) 
112457

>  <Links>  (261) 
|http://www.chemspider.com/Chemical-Structure.112457.html|https://www.ebi.ac.uk/chembldb/compound/inspect/CHEMBL603469|https://pubchem.ncbi.nlm.nih.gov/compound/126565|https://www.rcsb.org/ligand/2V9|https://www.ebi.ac.uk/pdbe-srv/pdbechem/chemicalCompound/show/2V9|https://www.guidetopharmacology.org/GRAC/LigandDisplayForward?5672|https://zinc15.docking.org/substances/ZINC000003781738|https://precision.fda.gov/uniisearch/srs/unii/DO989GC5D1|https://www.bindingdb.org/bind/chemsearch/marvin/MolStructure.jsp?monomerid=50308060

>  <LinkName>  (261) 
|ChemSpider|ChEMBL|PubChem|RCSB|PDBe|Guide to Pharmacology|ZINC|FDA SRS|BindingDB

>  <lig_pdb_ID>  (261) 
2V9

>  <pdb_IDs>  (261) 
4otg 5wnj 8bpw

>  <indicationDB>  (261) 


>  <uniprotId>  (261) 


>  <indicationG2P>  (261) 
None

>  <MW>  (261) 
439.2

>  <HBA>  (261) 
6

>  <HBD>  (261) 
3

>  <NRB>  (261) 
1

>  <TPSA>  (261) 
88.7

>  <LogP>  (261) 
3.5

>  <RoF>  (261) 
0

>  <Melting point>  (261) 
nan

>  <Targets>  (261) 
FLT3

>  <Kinase families>  (261) 
Tyr

>  <FDA_approved>  (261) 


$$$$
Remibrutinib
     RDKit          2D

 37 40  0  0  0  0  0  0  0  0999 V2000
    1.0194   -2.2513    0.0000 C   0  0  0  0  0  0  0  0  0  0  0  0
    0.5451   -0.8283    0.0000 C   0  0  0  0  0  0  0  0  0  0  0  0
   -0.9245   -0.5275    0.0000 C   0  0  0  0  0  0  0  0  0  0  0  0
   -1.3988    0.8955    0.0000 C   0  0  0  0  0  0  0  0  0  0  0  0
   -0.4036    2.0178    0.0000 C   0  0  0  0  0  0  0  0  0  0  0  0
    1.0660    1.7170    0.0000 C   0  0  0  0  0  0  0  0  0  0  0  0
    1.5403    0.2940    0.0000 C   0  0  0  0  0  0  0  0  0  0  0  0
    3.0098   -0.0067    0.0000 N   0  0  0  0  0  0  0  0  0  0  0  0
    4.0050    1.1156    0.0000 C   0  0  0  0  0  0  0  0  0  0  0  0
    3.5307    2.5386    0.0000 O   0  0  0  0  0  0  0  0  0  0  0  0
    5.4746    0.8148    0.0000 C   0  0  0  0  0  0  0  0  0  0  0  0
    5.9489   -0.6082    0.0000 C   0  0  0  0  0  0  0  0  0  0  0  0
    7.4184   -0.9090    0.0000 C   0  0  0  0  0  0  0  0  0  0  0  0
    8.4137    0.2133    0.0000 C   0  0  0  0  0  0  0  0  0  0  0  0
    7.9393    1.6364    0.0000 C   0  0  0  0  0  0  0  0  0  0  0  0
    6.4698    1.9371    0.0000 C   0  0  0  0  0  0  0  0  0  0  0  0
    9.8832   -0.0874    0.0000 C   0  0  0  0  0  0  0  0  0  0  0  0
   11.3062    0.3869    0.0000 C   0  0  0  0  0  0  0  0  0  0  0  0
   11.0055   -1.0826    0.0000 C   0  0  0  0  0  0  0  0  0  0  0  0
    4.9537   -1.7305    0.0000 F   0  0  0  0  0  0  0  0  0  0  0  0
   -0.8779    3.4408    0.0000 F   0  0  0  0  0  0  0  0  0  0  0  0
   -1.9197   -1.6498    0.0000 C   0  0  0  0  0  0  0  0  0  0  0  0
   -3.3893   -1.3491    0.0000 C   0  0  0  0  0  0  0  0  0  0  0  0
   -4.3845   -2.4714    0.0000 C   0  0  0  0  0  0  0  0  0  0  0  0
   -3.9101   -3.8944    0.0000 N   0  0  0  0  0  0  0  0  0  0  0  0
   -2.4406   -4.1952    0.0000 C   0  0  0  0  0  0  0  0  0  0  0  0
   -1.4454   -3.0729    0.0000 N   0  0  0  0  0  0  0  0  0  0  0  0
   -5.8540   -2.1706    0.0000 N   0  0  0  0  0  0  0  0  0  0  0  0
   -3.8636    0.0739    0.0000 O   0  0  0  0  0  0  0  0  0  0  0  0
   -5.3331    0.3747    0.0000 C   0  0  0  0  0  0  0  0  0  0  0  0
   -5.8074    1.7977    0.0000 C   0  0  0  0  0  0  0  0  0  0  0  0
   -7.2770    2.0985    0.0000 N   0  0  0  0  0  0  0  0  0  0  0  0
   -7.7513    3.5215    0.0000 C   0  0  0  0  0  0  0  0  0  0  0  0
   -8.2722    0.9762    0.0000 C   0  0  0  0  0  0  0  0  0  0  0  0
   -7.7979   -0.4469    0.0000 O   0  0  0  0  0  0  0  0  0  0  0  0
   -9.7417    1.2769    0.0000 C   0  0  0  0  0  0  0  0  0  0  0  0
  -10.7370    0.1546    0.0000 C   0  0  0  0  0  0  0  0  0  0  0  0
  1  2  1  0
  2  3  2  0
  3  4  1  0
  4  5  2  0
  5  6  1  0
  6  7  2  0
  7  8  1  0
  8  9  1  0
  9 10  2  0
  9 11  1  0
 11 12  2  0
 12 13  1  0
 13 14  2  0
 14 15  1  0
 15 16  2  0
 14 17  1  0
 17 18  1  0
 18 19  1  0
 12 20  1  0
  5 21  1  0
  3 22  1  0
 22 23  2  0
 23 24  1  0
 24 25  2  0
 25 26  1  0
 26 27  2  0
 24 28  1  0
 23 29  1  0
 29 30  1  0
 30 31  1  0
 31 32  1  0
 32 33  1  0
 32 34  1  0
 34 35  2  0
 34 36  1  0
 36 37  2  0
  7  2  1  0
 16 11  1  0
 19 17  1  0
 27 22  1  0
M  END
>  <BrandName>  (262) 


>  <Applicants>  (262) 
Novartis

>  <CHEMBL_ID>  (262) 
CHEMBL4483575

>  <Canonical_Smiles>  (262) 
CC1=C(C=C(C=C1NC(=O)C2=C(C=C(C=C2)C3CC3)F)F)C4=C(C(=NC=N4)N)OCCN(C)C(=O)C=C

>  <Chirality>  (262) 
Achiral Molecule

>  <First_Approval>  (262) 
nan

>  <Phase>  (262) 
3.0

>  <SC_Patent>  (262) 
nan

>  <Synonyms>  (262) 
LOU064-NXA | NVP-LOU064-NXA | REMIBRUTINIB

>  <Withdrawn>  (262) 
{''}

>  <Indications>  (262) 
nan

>  <Type>  (262) 
nan

>  <targets_id>  (262) 
nan

>  <Inchi>  (262) 
InChI=1S/C27H27F2N5O3/c1-4-23(35)34(3)9-10-37-25-24(31-14-32-26(25)30)20-12-18(28)13-22(15(20)2)33-27(36)19-8-7-17(11-21(19)29)16-5-6-16/h4,7-8,11-14,16H,1,5-6,9-10H2,2-3H3,(H,33,36)(H2,30,31,32)

>  <stdInchikey>  (262) 
CUABMPOJOBCXJI-UHFFFAOYSA-N

>  <csid>  (262) 
78317000

>  <Links>  (262) 
|http://www.chemspider.com/Chemical-Structure.78317000.html|https://www.ebi.ac.uk/chembldb/compound/inspect/CHEMBL4483575|https://pubchem.ncbi.nlm.nih.gov/compound/118107483|https://go.drugbank.com/drugs/DB16852|https://www.guidetopharmacology.org/GRAC/LigandDisplayForward?10457|https://precision.fda.gov/uniisearch/srs/unii/I7MVZ8HDNU|https://www.bindingdb.org/bind/chemsearch/marvin/MolStructure.jsp?monomerid=259407

>  <LinkName>  (262) 
|ChemSpider|ChEMBL|PubChem|DrugBank|Guide to Pharmacology|FDA SRS|BindingDB

>  <lig_pdb_ID>  (262) 


>  <pdb_IDs>  (262) 


>  <indicationDB>  (262) 


>  <uniprotId>  (262) 


>  <indicationG2P>  (262) 
None

>  <MW>  (262) 
507.2

>  <HBA>  (262) 
6

>  <HBD>  (262) 
2

>  <NRB>  (262) 
9

>  <TPSA>  (262) 
110.4

>  <LogP>  (262) 
4.5

>  <RoF>  (262) 
1

>  <Melting point>  (262) 
nan

>  <Targets>  (262) 
nan

>  <Kinase families>  (262) 


>  <FDA_approved>  (262) 


$$$$
Rigosertib
     RDKit          2D

 31 32  0  0  0  0  0  0  0  0999 V2000
   -7.7742    1.5445    0.0000 C   0  0  0  0  0  0  0  0  0  0  0  0
   -6.6079    0.6013    0.0000 O   0  0  0  0  0  0  0  0  0  0  0  0
   -5.2079    1.1398    0.0000 C   0  0  0  0  0  0  0  0  0  0  0  0
   -4.9742    2.6214    0.0000 C   0  0  0  0  0  0  0  0  0  0  0  0
   -3.5742    3.1599    0.0000 C   0  0  0  0  0  0  0  0  0  0  0  0
   -2.4079    2.2167    0.0000 C   0  0  0  0  0  0  0  0  0  0  0  0
   -2.6415    0.7350    0.0000 C   0  0  0  0  0  0  0  0  0  0  0  0
   -4.0416    0.1965    0.0000 C   0  0  0  0  0  0  0  0  0  0  0  0
   -4.2752   -1.2851    0.0000 N   0  0  0  0  0  0  0  0  0  0  0  0
   -5.6753   -1.8236    0.0000 C   0  0  0  0  0  0  0  0  0  0  0  0
   -5.9089   -3.3053    0.0000 C   0  0  0  0  0  0  0  0  0  0  0  0
   -4.7426   -4.2485    0.0000 O   0  0  0  0  0  0  0  0  0  0  0  0
   -7.3090   -3.8438    0.0000 O   0  0  0  0  0  0  0  0  0  0  0  0
   -1.0078    2.7552    0.0000 C   0  0  0  0  0  0  0  0  0  0  0  0
    0.1585    1.8119    0.0000 S   0  0  0  0  0  0  0  0  0  0  0  0
    1.1017    2.9783    0.0000 O   0  0  0  0  0  0  0  0  0  0  0  0
   -0.7847    0.6456    0.0000 O   0  0  0  0  0  0  0  0  0  0  0  0
    1.3248    0.8687    0.0000 C   0  0  0  0  0  0  0  0  0  0  0  0
    2.7249    1.4072    0.0000 C   0  0  0  0  0  0  0  0  0  0  0  0
    3.8912    0.4640    0.0000 C   0  0  0  0  0  0  0  0  0  0  0  0
    3.6575   -1.0177    0.0000 C   0  0  0  0  0  0  0  0  0  0  0  0
    4.8238   -1.9609    0.0000 C   0  0  0  0  0  0  0  0  0  0  0  0
    6.2239   -1.4225    0.0000 C   0  0  0  0  0  0  0  0  0  0  0  0
    6.4575    0.0592    0.0000 C   0  0  0  0  0  0  0  0  0  0  0  0
    5.2912    1.0024    0.0000 C   0  0  0  0  0  0  0  0  0  0  0  0
    5.5249    2.4841    0.0000 O   0  0  0  0  0  0  0  0  0  0  0  0
    6.9249    3.0226    0.0000 C   0  0  0  0  0  0  0  0  0  0  0  0
    7.3902   -2.3657    0.0000 O   0  0  0  0  0  0  0  0  0  0  0  0
    7.1565   -3.8474    0.0000 C   0  0  0  0  0  0  0  0  0  0  0  0
    2.2575   -1.5562    0.0000 O   0  0  0  0  0  0  0  0  0  0  0  0
    2.0238   -3.0379    0.0000 C   0  0  0  0  0  0  0  0  0  0  0  0
  1  2  1  0
  2  3  1  0
  3  4  2  0
  4  5  1  0
  5  6  2  0
  6  7  1  0
  7  8  2  0
  8  9  1  0
  9 10  1  0
 10 11  1  0
 11 12  2  0
 11 13  1  0
  6 14  1  0
 14 15  1  0
 15 16  2  0
 15 17  2  0
 15 18  1  0
 18 19  2  0
 19 20  1  0
 20 21  2  0
 21 22  1  0
 22 23  2  0
 23 24  1  0
 24 25  2  0
 25 26  1  0
 26 27  1  0
 23 28  1  0
 28 29  1  0
 21 30  1  0
 30 31  1  0
  8  3  1  0
 25 20  1  0
M  END
>  <BrandName>  (263) 


>  <Applicants>  (263) 
Onconova Therapeutics

>  <CHEMBL_ID>  (263) 
CHEMBL1241855

>  <Canonical_Smiles>  (263) 
COc1ccc(cc1NCC(=O)O)CS(=O)(=O)/C=C/c2c(cc(cc2OC)OC)OC

>  <Chirality>  (263) 
Achiral Molecule

>  <First_Approval>  (263) 
nan

>  <Phase>  (263) 
3.0

>  <SC_Patent>  (263) 
nan

>  <Synonyms>  (263) 
ON 01910 | ON01910 | RIGOSERTIB

>  <Withdrawn>  (263) 
{''}

>  <Indications>  (263) 
nan

>  <Type>  (263) 
3

>  <targets_id>  (263) 
P42336|P53350

>  <Inchi>  (263) 
InChI=1S/C21H25NO8S/c1-27-15-10-19(29-3)16(20(11-15)30-4)7-8-31(25,26)13-14-5-6-18(28-2)17(9-14)22-12-21(23)24/h5-11,22H,12-13H2,1-4H3,(H,23,24)/b8-7+

>  <stdInchikey>  (263) 
OWBFCJROIKNMGD-BQYQJAHWSA-N

>  <csid>  (263) 
5293927

>  <Links>  (263) 
|http://www.chemspider.com/Chemical-Structure.5293927.html|https://www.ebi.ac.uk/chembldb/compound/inspect/CHEMBL1241855|https://pubchem.ncbi.nlm.nih.gov/compound/6918736|https://go.drugbank.com/drugs/DB12146|https://www.rcsb.org/ligand/6FS|https://www.ebi.ac.uk/pdbe-srv/pdbechem/chemicalCompound/show/6FS|https://www.guidetopharmacology.org/GRAC/LigandDisplayForward?7833|https://zinc15.docking.org/substances/ZINC000003942646|https://precision.fda.gov/uniisearch/srs/unii/67DOW7F9GL|https://www.bindingdb.org/bind/chemsearch/marvin/MolStructure.jsp?monomerid=50060917

>  <LinkName>  (263) 
|ChemSpider|ChEMBL|PubChem|DrugBank|RCSB|PDBe|Guide to Pharmacology|ZINC|FDA SRS|BindingDB

>  <lig_pdb_ID>  (263) 
6FS

>  <pdb_IDs>  (263) 
5j18 5j2r 5ov7

>  <indicationDB>  (263) 


>  <uniprotId>  (263) 


>  <indicationG2P>  (263) 
None

>  <MW>  (263) 
451.1

>  <HBA>  (263) 
8

>  <HBD>  (263) 
2

>  <NRB>  (263) 
11

>  <TPSA>  (263) 
120.4

>  <LogP>  (263) 
2.8

>  <RoF>  (263) 
0

>  <Melting point>  (263) 
nan

>  <Targets>  (263) 
PIK3CA; PLK1

>  <Kinase families>  (263) 
Other<br>Atypical

>  <FDA_approved>  (263) 


$$$$
Motesanib
     RDKit          2D

 28 31  0  0  0  0  0  0  0  0999 V2000
   -7.1065    0.0693    0.0000 C   0  0  0  0  0  0  0  0  0  0  0  0
   -5.6142   -0.0833    0.0000 C   0  0  0  0  0  0  0  0  0  0  0  0
   -5.6185    1.4167    0.0000 C   0  0  0  0  0  0  0  0  0  0  0  0
   -4.1932    1.8842    0.0000 N   0  0  0  0  0  0  0  0  0  0  0  0
   -3.3081    0.6732    0.0000 C   0  0  0  0  0  0  0  0  0  0  0  0
   -4.1864   -0.5428    0.0000 C   0  0  0  0  0  0  0  0  0  0  0  0
   -3.5724   -1.9114    0.0000 C   0  0  0  0  0  0  0  0  0  0  0  0
   -2.0802   -2.0640    0.0000 C   0  0  0  0  0  0  0  0  0  0  0  0
   -1.2019   -0.8480    0.0000 C   0  0  0  0  0  0  0  0  0  0  0  0
   -1.8159    0.5206    0.0000 C   0  0  0  0  0  0  0  0  0  0  0  0
    0.2903   -1.0006    0.0000 N   0  0  0  0  0  0  0  0  0  0  0  0
    0.9043   -2.3692    0.0000 C   0  0  0  0  0  0  0  0  0  0  0  0
    0.0260   -3.5852    0.0000 O   0  0  0  0  0  0  0  0  0  0  0  0
    2.3965   -2.5218    0.0000 C   0  0  0  0  0  0  0  0  0  0  0  0
    3.0104   -3.8904    0.0000 C   0  0  0  0  0  0  0  0  0  0  0  0
    4.5027   -4.0430    0.0000 C   0  0  0  0  0  0  0  0  0  0  0  0
    5.3809   -2.8269    0.0000 C   0  0  0  0  0  0  0  0  0  0  0  0
    4.7670   -1.4584    0.0000 N   0  0  0  0  0  0  0  0  0  0  0  0
    3.2747   -1.3058    0.0000 C   0  0  0  0  0  0  0  0  0  0  0  0
    2.6608    0.0628    0.0000 N   0  0  0  0  0  0  0  0  0  0  0  0
    3.5390    1.2788    0.0000 C   0  0  0  0  0  0  0  0  0  0  0  0
    2.9251    2.6474    0.0000 C   0  0  0  0  0  0  0  0  0  0  0  0
    3.8033    3.8634    0.0000 C   0  0  0  0  0  0  0  0  0  0  0  0
    3.1894    5.2320    0.0000 C   0  0  0  0  0  0  0  0  0  0  0  0
    1.6972    5.3846    0.0000 N   0  0  0  0  0  0  0  0  0  0  0  0
    0.8189    4.1686    0.0000 C   0  0  0  0  0  0  0  0  0  0  0  0
    1.4329    2.8000    0.0000 C   0  0  0  0  0  0  0  0  0  0  0  0
   -5.9220   -1.5514    0.0000 C   0  0  0  0  0  0  0  0  0  0  0  0
  1  2  1  0
  2  3  1  0
  3  4  1  0
  4  5  1  0
  5  6  2  0
  6  7  1  0
  7  8  2  0
  8  9  1  0
  9 10  2  0
  9 11  1  0
 11 12  1  0
 12 13  2  0
 12 14  1  0
 14 15  2  0
 15 16  1  0
 16 17  2  0
 17 18  1  0
 18 19  2  0
 19 20  1  0
 20 21  1  0
 21 22  1  0
 22 23  2  0
 23 24  1  0
 24 25  2  0
 25 26  1  0
 26 27  2  0
  2 28  1  0
  6  2  1  0
 10  5  1  0
 19 14  1  0
 27 22  1  0
M  END
>  <BrandName>  (264) 


>  <Applicants>  (264) 
Amgen

>  <CHEMBL_ID>  (264) 
CHEMBL572881

>  <Canonical_Smiles>  (264) 
CC1(CNc2c1ccc(c2)NC(=O)c3cccnc3NCc4ccncc4)C

>  <Chirality>  (264) 
Achiral Molecule

>  <First_Approval>  (264) 
nan

>  <Phase>  (264) 
3.0

>  <SC_Patent>  (264) 
nan

>  <Synonyms>  (264) 
AMG 706 | AMG-706 | MOTESANIB

>  <Withdrawn>  (264) 
{''}

>  <Indications>  (264) 
nan

>  <Type>  (264) 
2

>  <targets_id>  (264) 
P17948|P35968|P35916|P16234|P09619|P10721|P07949

>  <Inchi>  (264) 
InChI=1S/C22H23N5O/c1-22(2)14-26-19-12-16(5-6-18(19)22)27-21(28)17-4-3-9-24-20(17)25-13-15-7-10-23-11-8-15/h3-12,26H,13-14H2,1-2H3,(H,24,25)(H,27,28)

>  <stdInchikey>  (264) 
RAHBGWKEPAQNFF-UHFFFAOYSA-N

>  <csid>  (264) 
9842625

>  <Links>  (264) 
|http://www.chemspider.com/Chemical-Structure.9842625.html|https://www.ebi.ac.uk/chembldb/compound/inspect/CHEMBL572881|https://pubchem.ncbi.nlm.nih.gov/compound/11667893|https://go.drugbank.com/drugs/DB05575|https://www.rcsb.org/ligand/706|https://www.ebi.ac.uk/pdbe-srv/pdbechem/chemicalCompound/show/706|https://www.guidetopharmacology.org/GRAC/LigandDisplayForward?5660|https://zinc15.docking.org/substances/ZINC000018710082|https://precision.fda.gov/uniisearch/srs/unii/U1JK633AYI|https://www.bindingdb.org/bind/chemsearch/marvin/MolStructure.jsp?monomerid=24773

>  <LinkName>  (264) 
|ChemSpider|ChEMBL|PubChem|DrugBank|RCSB|PDBe|Guide to Pharmacology|ZINC|FDA SRS|BindingDB

>  <lig_pdb_ID>  (264) 
706

>  <pdb_IDs>  (264) 
3efl

>  <indicationDB>  (264) 


>  <uniprotId>  (264) 


>  <indicationG2P>  (264) 
None

>  <MW>  (264) 
373.2

>  <HBA>  (264) 
5

>  <HBD>  (264) 
3

>  <NRB>  (264) 
5

>  <TPSA>  (264) 
78.9

>  <LogP>  (264) 
4.0

>  <RoF>  (264) 
0

>  <Melting point>  (264) 
nan

>  <Targets>  (264) 
FLT1; KDR; FLT4; PDGFRA; PDGFRB; KIT; RET

>  <Kinase families>  (264) 
Tyr

>  <FDA_approved>  (264) 


$$$$
Barasertib
     RDKit          2D

 41 44  0  0  0  0  0  0  0  0999 V2000
   11.2660   -3.3224    0.0000 C   0  0  0  0  0  0  0  0  0  0  0  0
    9.7675   -3.2551    0.0000 C   0  0  0  0  0  0  0  0  0  0  0  0
    9.0765   -1.9238    0.0000 N   0  0  0  0  0  0  0  0  0  0  0  0
    7.5780   -1.8566    0.0000 C   0  0  0  0  0  0  0  0  0  0  0  0
    6.8870   -0.5252    0.0000 C   0  0  0  0  0  0  0  0  0  0  0  0
    5.3885   -0.4580    0.0000 C   0  0  0  0  0  0  0  0  0  0  0  0
    4.6975    0.8734    0.0000 O   0  0  0  0  0  0  0  0  0  0  0  0
    3.1990    0.9406    0.0000 C   0  0  0  0  0  0  0  0  0  0  0  0
    2.3915   -0.3235    0.0000 C   0  0  0  0  0  0  0  0  0  0  0  0
    0.8931   -0.2563    0.0000 C   0  0  0  0  0  0  0  0  0  0  0  0
    0.2020    1.0751    0.0000 C   0  0  0  0  0  0  0  0  0  0  0  0
    1.0095    2.3392    0.0000 C   0  0  0  0  0  0  0  0  0  0  0  0
    2.5080    2.2720    0.0000 C   0  0  0  0  0  0  0  0  0  0  0  0
    0.3185    3.6706    0.0000 N   0  0  0  0  0  0  0  0  0  0  0  0
   -1.1800    3.7378    0.0000 C   0  0  0  0  0  0  0  0  0  0  0  0
   -1.9875    2.4737    0.0000 N   0  0  0  0  0  0  0  0  0  0  0  0
   -1.2965    1.1423    0.0000 C   0  0  0  0  0  0  0  0  0  0  0  0
   -2.1039   -0.1218    0.0000 N   0  0  0  0  0  0  0  0  0  0  0  0
   -3.6024   -0.0545    0.0000 C   0  0  0  0  0  0  0  0  0  0  0  0
   -4.5376   -1.2273    0.0000 C   0  0  0  0  0  0  0  0  0  0  0  0
   -5.9420   -0.7003    0.0000 C   0  0  0  0  0  0  0  0  0  0  0  0
   -5.8747    0.7982    0.0000 N   0  0  0  0  0  0  0  0  0  0  0  0
   -4.4288    1.1973    0.0000 N   0  0  0  0  0  0  0  0  0  0  0  0
   -7.1938   -1.5267    0.0000 C   0  0  0  0  0  0  0  0  0  0  0  0
   -8.5354   -0.8558    0.0000 C   0  0  0  0  0  0  0  0  0  0  0  0
   -8.6252    0.6415    0.0000 O   0  0  0  0  0  0  0  0  0  0  0  0
   -9.7872   -1.6822    0.0000 N   0  0  0  0  0  0  0  0  0  0  0  0
  -11.1288   -1.0113    0.0000 C   0  0  0  0  0  0  0  0  0  0  0  0
  -11.2186    0.4860    0.0000 C   0  0  0  0  0  0  0  0  0  0  0  0
  -12.5602    1.1569    0.0000 C   0  0  0  0  0  0  0  0  0  0  0  0
  -13.8120    0.3306    0.0000 C   0  0  0  0  0  0  0  0  0  0  0  0
  -13.7222   -1.1668    0.0000 C   0  0  0  0  0  0  0  0  0  0  0  0
  -12.3807   -1.8377    0.0000 C   0  0  0  0  0  0  0  0  0  0  0  0
  -14.9741   -1.9932    0.0000 F   0  0  0  0  0  0  0  0  0  0  0  0
    9.8840   -0.6597    0.0000 C   0  0  0  0  0  0  0  0  0  0  0  0
   11.3825   -0.7269    0.0000 C   0  0  0  0  0  0  0  0  0  0  0  0
   12.1900    0.5372    0.0000 O   0  0  0  0  0  0  0  0  0  0  0  0
   13.6885    0.4700    0.0000 P   0  0  0  0  0  0  0  0  0  0  0  0
   13.7557    1.9685    0.0000 O   0  0  0  0  0  0  0  0  0  0  0  0
   13.6212   -1.0285    0.0000 O   0  0  0  0  0  0  0  0  0  0  0  0
   15.1870    0.4027    0.0000 O   0  0  0  0  0  0  0  0  0  0  0  0
  1  2  1  0
  2  3  1  0
  3  4  1  0
  4  5  1  0
  5  6  1  0
  6  7  1  0
  7  8  1  0
  8  9  2  0
  9 10  1  0
 10 11  2  0
 11 12  1  0
 12 13  2  0
 12 14  1  0
 14 15  2  0
 15 16  1  0
 16 17  2  0
 17 18  1  0
 18 19  1  0
 19 20  2  0
 20 21  1  0
 21 22  2  0
 22 23  1  0
 21 24  1  0
 24 25  1  0
 25 26  2  0
 25 27  1  0
 27 28  1  0
 28 29  2  0
 29 30  1  0
 30 31  2  0
 31 32  1  0
 32 33  2  0
 32 34  1  0
  3 35  1  0
 35 36  1  0
 36 37  1  0
 37 38  1  0
 38 39  2  0
 38 40  1  0
 38 41  1  0
 13  8  1  0
 17 11  1  0
 23 19  1  0
 33 28  1  0
M  END
>  <BrandName>  (265) 


>  <Applicants>  (265) 
Astrazeneca

>  <CHEMBL_ID>  (265) 
CHEMBL415049

>  <Canonical_Smiles>  (265) 
CCN(CCCOc1ccc2c(c1)ncnc2Nc3cc(n[nH]3)CC(=O)Nc4cccc(c4)F)CCOP(=O)(O)O

>  <Chirality>  (265) 
Achiral Molecule

>  <First_Approval>  (265) 
nan

>  <Phase>  (265) 
3.0

>  <SC_Patent>  (265) 
nan

>  <Synonyms>  (265) 
AZD 1152 | AZD-1152 | AZD1152 | BARASERTIB | BARASERTIB (WHO-DD)

>  <Withdrawn>  (265) 
nan

>  <Indications>  (265) 
nan

>  <Type>  (265) 
nan

>  <targets_id>  (265) 
Q96GD4

>  <Inchi>  (265) 
InChI=1S/C26H31FN7O6P/c1-2-34(10-12-40-41(36,37)38)9-4-11-39-21-7-8-22-23(16-21)28-17-29-26(22)31-24-14-20(32-33-24)15-25(35)30-19-6-3-5-18(27)13-19/h3,5-8,13-14,16-17H,2,4,9-12,15H2,1H3,(H,30,35)(H2,36,37,38)(H2,28,29,31,32,33)

>  <stdInchikey>  (265) 
GBJVVSCPOBPEIT-UHFFFAOYSA-N

>  <csid>  (265) 
9672789

>  <Links>  (265) 
|http://www.chemspider.com/Chemical-Structure.9672789.html|https://www.ebi.ac.uk/chembldb/compound/inspect/CHEMBL415049|https://pubchem.ncbi.nlm.nih.gov/compound/11497983|https://go.drugbank.com/drugs/DB11747|https://www.guidetopharmacology.org/GRAC/LigandDisplayForward?7332|https://zinc15.docking.org/substances/ZINC000043129461|https://precision.fda.gov/uniisearch/srs/unii/16XC2U7W8N|https://www.bindingdb.org/bind/chemsearch/marvin/MolStructure.jsp?monomerid=50241089

>  <LinkName>  (265) 
|ChemSpider|ChEMBL|PubChem|DrugBank|Guide to Pharmacology|ZINC|FDA SRS|BindingDB

>  <lig_pdb_ID>  (265) 


>  <pdb_IDs>  (265) 


>  <indicationDB>  (265) 


>  <uniprotId>  (265) 


>  <indicationG2P>  (265) 
None

>  <MW>  (265) 
587.2

>  <HBA>  (265) 
9

>  <HBD>  (265) 
5

>  <NRB>  (265) 
15

>  <TPSA>  (265) 
174.8

>  <LogP>  (265) 
3.6

>  <RoF>  (265) 
1

>  <Melting point>  (265) 
nan

>  <Targets>  (265) 
AURKB

>  <Kinase families>  (265) 
Other

>  <FDA_approved>  (265) 


$$$$
Tivantinib
     RDKit          2D

 28 33  0  0  0  0  0  0  0  0999 V2000
   -6.1117    0.0870    0.0000 C   0  0  0  0  0  0  0  0  0  0  0  0
   -6.3188    1.5727    0.0000 C   0  0  0  0  0  0  0  0  0  0  0  0
   -5.1358    2.4948    0.0000 C   0  0  0  0  0  0  0  0  0  0  0  0
   -3.7456    1.9314    0.0000 C   0  0  0  0  0  0  0  0  0  0  0  0
   -3.5385    0.4457    0.0000 C   0  0  0  0  0  0  0  0  0  0  0  0
   -4.7216   -0.4764    0.0000 C   0  0  0  0  0  0  0  0  0  0  0  0
   -2.0616    0.1836    0.0000 C   0  0  0  0  0  0  0  0  0  0  0  0
   -1.3559    1.5072    0.0000 C   0  0  0  0  0  0  0  0  0  0  0  0
   -2.3967    2.5874    0.0000 N   0  0  0  0  0  0  0  0  0  0  0  0
   -1.4056   -1.1653    0.0000 C   0  0  0  0  0  0  0  0  0  0  0  0
    0.0713   -1.4274    0.0000 C   0  0  0  0  0  0  0  0  0  0  0  0
    0.2784   -2.9131    0.0000 C   0  0  0  0  0  0  0  0  0  0  0  0
    1.6021   -3.6188    0.0000 O   0  0  0  0  0  0  0  0  0  0  0  0
   -1.0705   -3.5691    0.0000 N   0  0  0  0  0  0  0  0  0  0  0  0
   -2.1113   -2.4890    0.0000 C   0  0  0  0  0  0  0  0  0  0  0  0
   -3.5969   -2.6961    0.0000 O   0  0  0  0  0  0  0  0  0  0  0  0
    1.1515   -0.3867    0.0000 C   0  0  0  0  0  0  0  0  0  0  0  0
    0.9444    1.0990    0.0000 C   0  0  0  0  0  0  0  0  0  0  0  0
    2.2933    1.7550    0.0000 N   0  0  0  0  0  0  0  0  0  0  0  0
    3.3341    0.6748    0.0000 C   0  0  0  0  0  0  0  0  0  0  0  0
    2.6284   -0.6488    0.0000 C   0  0  0  0  0  0  0  0  0  0  0  0
    3.4219   -1.9217    0.0000 C   0  0  0  0  0  0  0  0  0  0  0  0
    4.9210   -1.8711    0.0000 C   0  0  0  0  0  0  0  0  0  0  0  0
    5.6267   -0.5474    0.0000 C   0  0  0  0  0  0  0  0  0  0  0  0
    4.8333    0.7255    0.0000 C   0  0  0  0  0  0  0  0  0  0  0  0
    5.2646    2.1692    0.0000 C   0  0  0  0  0  0  0  0  0  0  0  0
    4.3424    3.3523    0.0000 C   0  0  0  0  0  0  0  0  0  0  0  0
    2.8568    3.1452    0.0000 C   0  0  0  0  0  0  0  0  0  0  0  0
  1  2  2  0
  2  3  1  0
  3  4  2  0
  4  5  1  0
  5  6  2  0
  5  7  1  0
  7  8  2  0
  8  9  1  0
 10  7  1  1
 10 11  1  0
 11 12  1  0
 12 13  2  0
 12 14  1  0
 14 15  1  0
 15 16  2  0
 11 17  1  6
 17 18  2  0
 18 19  1  0
 19 20  1  0
 20 21  2  0
 21 22  1  0
 22 23  2  0
 23 24  1  0
 24 25  2  0
 25 26  1  0
 26 27  1  0
 27 28  1  0
  6  1  1  0
  9  4  1  0
 15 10  1  0
 21 17  1  0
 28 19  1  0
 25 20  1  0
M  END
>  <BrandName>  (266) 


>  <Applicants>  (266) 
Daiichi Sankyo

>  <CHEMBL_ID>  (266) 
CHEMBL2103882

>  <Canonical_Smiles>  (266) 
c1ccc2c(c1)c(c[nH]2)[C@H]3[C@@H](C(=O)NC3=O)c4cn5c6c4cccc6CCC5

>  <Chirality>  (266) 
Single Stereoisomer

>  <First_Approval>  (266) 
nan

>  <Phase>  (266) 
3.0

>  <SC_Patent>  (266) 
nan

>  <Synonyms>  (266) 
ARQ 197 | ARQ-197 | TIVANTINIB

>  <Withdrawn>  (266) 
{''}

>  <Indications>  (266) 
nan

>  <Type>  (266) 
nan

>  <targets_id>  (266) 
P08581

>  <Inchi>  (266) 
InChI=1S/C23H19N3O2/c27-22-19(16-11-24-18-9-2-1-7-14(16)18)20(23(28)25-22)17-12-26-10-4-6-13-5-3-8-15(17)21(13)26/h1-3,5,7-9,11-12,19-20,24H,4,6,10H2,(H,25,27,28)/t19-,20-/m0/s1

>  <stdInchikey>  (266) 
UCEQXRCJXIVODC-PMACEKPBSA-N

>  <csid>  (266) 
9669218

>  <Links>  (266) 
|http://www.chemspider.com/Chemical-Structure.9669218.html|https://www.ebi.ac.uk/chembldb/compound/inspect/CHEMBL2103882|https://pubchem.ncbi.nlm.nih.gov/compound/11494412|https://go.drugbank.com/drugs/DB12200|https://www.rcsb.org/ligand/TIV|https://www.ebi.ac.uk/pdbe-srv/pdbechem/chemicalCompound/show/TIV|https://www.guidetopharmacology.org/GRAC/LigandDisplayForward?7948|https://zinc15.docking.org/substances/ZINC000100016063|https://precision.fda.gov/uniisearch/srs/unii/PJ4H73IL17|https://www.bindingdb.org/bind/chemsearch/marvin/MolStructure.jsp?monomerid=50146168

>  <LinkName>  (266) 
|ChemSpider|ChEMBL|PubChem|DrugBank|RCSB|PDBe|Guide to Pharmacology|ZINC|FDA SRS|BindingDB

>  <lig_pdb_ID>  (266) 
TIV

>  <pdb_IDs>  (266) 
5cb4

>  <indicationDB>  (266) 


>  <uniprotId>  (266) 


>  <indicationG2P>  (266) 
None

>  <MW>  (266) 
369.1

>  <HBA>  (266) 
3

>  <HBD>  (266) 
2

>  <NRB>  (266) 
2

>  <TPSA>  (266) 
66.9

>  <LogP>  (266) 
3.6

>  <RoF>  (266) 
0

>  <Melting point>  (266) 
nan

>  <Targets>  (266) 
MET

>  <Kinase families>  (266) 
Tyr

>  <FDA_approved>  (266) 


$$$$
Orelabrutinib
     RDKit          2D

 32 35  0  0  0  0  0  0  0  0999 V2000
    9.4251   -3.4136    0.0000 C   0  0  0  0  0  0  0  0  0  0  0  0
    8.0659   -2.7792    0.0000 C   0  0  0  0  0  0  0  0  0  0  0  0
    7.9357   -1.2848    0.0000 C   0  0  0  0  0  0  0  0  0  0  0  0
    9.1647   -0.4249    0.0000 O   0  0  0  0  0  0  0  0  0  0  0  0
    6.5765   -0.6504    0.0000 N   0  0  0  0  0  0  0  0  0  0  0  0
    5.3474   -1.5103    0.0000 C   0  0  0  0  0  0  0  0  0  0  0  0
    3.9882   -0.8759    0.0000 C   0  0  0  0  0  0  0  0  0  0  0  0
    3.8580    0.6184    0.0000 C   0  0  0  0  0  0  0  0  0  0  0  0
    5.0870    1.4784    0.0000 C   0  0  0  0  0  0  0  0  0  0  0  0
    6.4463    0.8439    0.0000 C   0  0  0  0  0  0  0  0  0  0  0  0
    2.4988    1.2529    0.0000 C   0  0  0  0  0  0  0  0  0  0  0  0
    2.3686    2.7472    0.0000 C   0  0  0  0  0  0  0  0  0  0  0  0
    1.0093    3.3816    0.0000 C   0  0  0  0  0  0  0  0  0  0  0  0
   -0.2197    2.5217    0.0000 C   0  0  0  0  0  0  0  0  0  0  0  0
   -1.5789    3.1561    0.0000 C   0  0  0  0  0  0  0  0  0  0  0  0
   -1.7091    4.6505    0.0000 N   0  0  0  0  0  0  0  0  0  0  0  0
   -2.8080    2.2962    0.0000 O   0  0  0  0  0  0  0  0  0  0  0  0
   -0.0895    1.0274    0.0000 C   0  0  0  0  0  0  0  0  0  0  0  0
    1.2697    0.3929    0.0000 N   0  0  0  0  0  0  0  0  0  0  0  0
   -1.3185    0.1674    0.0000 C   0  0  0  0  0  0  0  0  0  0  0  0
   -2.6778    0.8019    0.0000 C   0  0  0  0  0  0  0  0  0  0  0  0
   -3.9068   -0.0581    0.0000 C   0  0  0  0  0  0  0  0  0  0  0  0
   -3.7766   -1.5524    0.0000 C   0  0  0  0  0  0  0  0  0  0  0  0
   -2.4174   -2.1868    0.0000 C   0  0  0  0  0  0  0  0  0  0  0  0
   -1.1884   -1.3269    0.0000 C   0  0  0  0  0  0  0  0  0  0  0  0
   -5.0057   -2.4123    0.0000 O   0  0  0  0  0  0  0  0  0  0  0  0
   -6.3649   -1.7779    0.0000 C   0  0  0  0  0  0  0  0  0  0  0  0
   -6.4951   -0.2836    0.0000 C   0  0  0  0  0  0  0  0  0  0  0  0
   -7.8543    0.3508    0.0000 C   0  0  0  0  0  0  0  0  0  0  0  0
   -9.0834   -0.5091    0.0000 C   0  0  0  0  0  0  0  0  0  0  0  0
   -8.9532   -2.0034    0.0000 C   0  0  0  0  0  0  0  0  0  0  0  0
   -7.5939   -2.6378    0.0000 C   0  0  0  0  0  0  0  0  0  0  0  0
  1  2  2  0
  2  3  1  0
  3  4  2  0
  3  5  1  0
  5  6  1  0
  6  7  1  0
  7  8  1  0
  8  9  1  0
  9 10  1  0
  8 11  1  0
 11 12  2  0
 12 13  1  0
 13 14  2  0
 14 15  1  0
 15 16  1  0
 15 17  2  0
 14 18  1  0
 18 19  2  0
 18 20  1  0
 20 21  2  0
 21 22  1  0
 22 23  2  0
 23 24  1  0
 24 25  2  0
 23 26  1  0
 26 27  1  0
 27 28  2  0
 28 29  1  0
 29 30  2  0
 30 31  1  0
 31 32  2  0
 10  5  1  0
 19 11  1  0
 25 20  1  0
 32 27  1  0
M  END
>  <BrandName>  (267) 
Innobruka

>  <Applicants>  (267) 
InnoCare Pharma

>  <CHEMBL_ID>  (267) 
CHEMBL4650321

>  <Canonical_Smiles>  (267) 
C=CC(=O)N1CCC(CC1)C1=CC=C(C(N)=O)C(=N1)C1C=CC(=CC=1)OC1C=CC=CC=1

>  <Chirality>  (267) 
Achiral Molecule

>  <First_Approval>  (267) 
nan

>  <Phase>  (267) 
3.0

>  <SC_Patent>  (267) 
nan

>  <Synonyms>  (267) 
ICP-022 | ICP022 | INNOBRUKA | ORELABRUTINIB

>  <Withdrawn>  (267) 
{''}

>  <Indications>  (267) 
nan

>  <Type>  (267) 
nan

>  <targets_id>  (267) 
nan

>  <Inchi>  (267) 
InChI=1S/C26H25N3O3/c1-2-24(30)29-16-14-18(15-17-29)23-13-12-22(26(27)31)25(28-23)19-8-10-21(11-9-19)32-20-6-4-3-5-7-20/h2-13,18H,1,14-17H2,(H2,27,31)

>  <stdInchikey>  (267) 
MZPVEMOYADUARK-UHFFFAOYSA-N

>  <csid>  (267) 
82956396

>  <Links>  (267) 
|http://www.chemspider.com/Chemical-Structure.82956396.html|https://www.ebi.ac.uk/chembldb/compound/inspect/CHEMBL4650321|https://pubchem.ncbi.nlm.nih.gov/compound/91667513|https://go.drugbank.com/drugs/DB16272|https://www.guidetopharmacology.org/GRAC/LigandDisplayForward?10629|https://precision.fda.gov/uniisearch/srs/unii/WJA5UO9E10|https://www.bindingdb.org/bind/chemsearch/marvin/MolStructure.jsp?monomerid=389631

>  <LinkName>  (267) 
|ChemSpider|ChEMBL|PubChem|DrugBank|Guide to Pharmacology|FDA SRS|BindingDB

>  <lig_pdb_ID>  (267) 


>  <pdb_IDs>  (267) 


>  <indicationDB>  (267) 


>  <uniprotId>  (267) 


>  <indicationG2P>  (267) 
None

>  <MW>  (267) 
427.2

>  <HBA>  (267) 
4

>  <HBD>  (267) 
1

>  <NRB>  (267) 
6

>  <TPSA>  (267) 
85.5

>  <LogP>  (267) 
4.5

>  <RoF>  (267) 
0

>  <Melting point>  (267) 
nan

>  <Targets>  (267) 
nan

>  <Kinase families>  (267) 


>  <FDA_approved>  (267) 


$$$$
Simotinib
     RDKit          2D

 35 40  0  0  0  0  0  0  0  0999 V2000
   -2.1964   -3.6811    0.0000 C   0  0  0  0  0  0  0  0  0  0  0  0
   -1.7661   -2.2442    0.0000 O   0  0  0  0  0  0  0  0  0  0  0  0
   -0.3065   -1.8984    0.0000 C   0  0  0  0  0  0  0  0  0  0  0  0
    0.7228   -2.9895    0.0000 C   0  0  0  0  0  0  0  0  0  0  0  0
    2.1824   -2.6437    0.0000 C   0  0  0  0  0  0  0  0  0  0  0  0
    2.6127   -1.2067    0.0000 C   0  0  0  0  0  0  0  0  0  0  0  0
    1.5834   -0.1156    0.0000 C   0  0  0  0  0  0  0  0  0  0  0  0
    0.1238   -0.4614    0.0000 C   0  0  0  0  0  0  0  0  0  0  0  0
   -0.9055    0.6297    0.0000 O   0  0  0  0  0  0  0  0  0  0  0  0
   -2.3651    0.2839    0.0000 C   0  0  0  0  0  0  0  0  0  0  0  0
   -3.3944    1.3750    0.0000 C   0  0  0  0  0  0  0  0  0  0  0  0
   -4.8540    1.0292    0.0000 N   0  0  0  0  0  0  0  0  0  0  0  0
   -5.4321   -0.3549    0.0000 C   0  0  0  0  0  0  0  0  0  0  0  0
   -6.9271   -0.2327    0.0000 C   0  0  0  0  0  0  0  0  0  0  0  0
   -7.2049   -1.7068    0.0000 C   0  0  0  0  0  0  0  0  0  0  0  0
   -8.3426   -0.7292    0.0000 C   0  0  0  0  0  0  0  0  0  0  0  0
   -7.2730    1.2269    0.0000 C   0  0  0  0  0  0  0  0  0  0  0  0
   -5.9917    2.0068    0.0000 C   0  0  0  0  0  0  0  0  0  0  0  0
   -8.5542    0.4469    0.0000 O   0  0  0  0  0  0  0  0  0  0  0  0
   -9.6919    1.4245    0.0000 C   0  0  0  0  0  0  0  0  0  0  0  0
   -9.1138    2.8086    0.0000 C   0  0  0  0  0  0  0  0  0  0  0  0
   -7.6188    2.6865    0.0000 O   0  0  0  0  0  0  0  0  0  0  0  0
    4.0723   -0.8609    0.0000 C   0  0  0  0  0  0  0  0  0  0  0  0
    5.1015   -1.9520    0.0000 N   0  0  0  0  0  0  0  0  0  0  0  0
    4.6712   -3.3890    0.0000 C   0  0  0  0  0  0  0  0  0  0  0  0
    3.2116   -3.7348    0.0000 N   0  0  0  0  0  0  0  0  0  0  0  0
    4.5026    0.5760    0.0000 N   0  0  0  0  0  0  0  0  0  0  0  0
    5.9622    0.9219    0.0000 C   0  0  0  0  0  0  0  0  0  0  0  0
    6.9914   -0.1693    0.0000 C   0  0  0  0  0  0  0  0  0  0  0  0
    8.4510    0.1765    0.0000 C   0  0  0  0  0  0  0  0  0  0  0  0
    8.8813    1.6135    0.0000 C   0  0  0  0  0  0  0  0  0  0  0  0
    7.8521    2.7046    0.0000 C   0  0  0  0  0  0  0  0  0  0  0  0
    6.3925    2.3588    0.0000 C   0  0  0  0  0  0  0  0  0  0  0  0
    8.2824    4.1416    0.0000 Cl  0  0  0  0  0  0  0  0  0  0  0  0
   10.3409    1.9593    0.0000 F   0  0  0  0  0  0  0  0  0  0  0  0
  1  2  1  0
  2  3  1  0
  3  4  2  0
  4  5  1  0
  5  6  2  0
  6  7  1  0
  7  8  2  0
  8  9  1  0
  9 10  1  0
 10 11  1  0
 11 12  1  0
 12 13  1  0
 13 14  1  0
 14 15  1  0
 15 16  1  0
 14 17  1  0
 17 18  1  0
 17 19  1  0
 19 20  1  0
 20 21  1  0
 21 22  1  0
  6 23  1  0
 23 24  2  0
 24 25  1  0
 25 26  2  0
 23 27  1  0
 27 28  1  0
 28 29  2  0
 29 30  1  0
 30 31  2  0
 31 32  1  0
 32 33  2  0
 32 34  1  0
 31 35  1  0
  8  3  1  0
 26  5  1  0
 18 12  1  0
 16 14  1  0
 22 17  1  0
 33 28  1  0
M  END
>  <BrandName>  (268) 


>  <Applicants>  (268) 
Advenchen Laboratories

>  <CHEMBL_ID>  (268) 
CHEMBL3545235

>  <Canonical_Smiles>  (268) 
COc1cc2c(cc1OCCN3CC4(CC4)C5(C3)OCCO5)c(ncn2)Nc6ccc(c(c6)Cl)F

>  <Chirality>  (268) 
Achiral Molecule

>  <First_Approval>  (268) 
nan

>  <Phase>  (268) 
3.0

>  <SC_Patent>  (268) 
nan

>  <Synonyms>  (268) 
SIM-6802 | SIMOTINIB

>  <Withdrawn>  (268) 
nan

>  <Indications>  (268) 
nan

>  <Type>  (268) 
nan

>  <targets_id>  (268) 
P00533

>  <Inchi>  (268) 
InChI=1S/C25H26ClFN4O4/c1-32-21-12-20-17(23(29-15-28-20)30-16-2-3-19(27)18(26)10-16)11-22(21)33-7-6-31-13-24(4-5-24)25(14-31)34-8-9-35-25/h2-3,10-12,15H,4-9,13-14H2,1H3,(H,28,29,30)

>  <stdInchikey>  (268) 
OXWUWXCJDBRCCG-UHFFFAOYSA-N

>  <csid>  (268) 
20566604

>  <Links>  (268) 
|http://www.chemspider.com/Chemical-Structure.20566604.html|https://www.ebi.ac.uk/chembldb/compound/inspect/CHEMBL3545235|https://pubchem.ncbi.nlm.nih.gov/compound/16735117|https://www.guidetopharmacology.org/GRAC/LigandDisplayForward?7640|https://zinc15.docking.org/substances/ZINC000137136675|https://precision.fda.gov/uniisearch/srs/unii/58K797D5IK

>  <LinkName>  (268) 
|ChemSpider|ChEMBL|PubChem|Guide to Pharmacology|ZINC|FDA SRS

>  <lig_pdb_ID>  (268) 


>  <pdb_IDs>  (268) 


>  <indicationDB>  (268) 


>  <uniprotId>  (268) 


>  <indicationG2P>  (268) 
None

>  <MW>  (268) 
500.2

>  <HBA>  (268) 
8

>  <HBD>  (268) 
1

>  <NRB>  (268) 
7

>  <TPSA>  (268) 
78.0

>  <LogP>  (268) 
4.4

>  <RoF>  (268) 
1

>  <Melting point>  (268) 
nan

>  <Targets>  (268) 
EGFR

>  <Kinase families>  (268) 
Tyr

>  <FDA_approved>  (268) 


$$$$
Tolebrutinib
     RDKit          2D

 34 38  0  0  0  0  0  0  0  0999 V2000
    6.5785    5.6668    0.0000 C   0  0  0  0  0  0  0  0  0  0  0  0
    6.5184    4.1680    0.0000 C   0  0  0  0  0  0  0  0  0  0  0  0
    5.1904    3.4705    0.0000 C   0  0  0  0  0  0  0  0  0  0  0  0
    3.9224    4.2719    0.0000 O   0  0  0  0  0  0  0  0  0  0  0  0
    5.1304    1.9717    0.0000 N   0  0  0  0  0  0  0  0  0  0  0  0
    6.3984    1.1704    0.0000 C   0  0  0  0  0  0  0  0  0  0  0  0
    6.3384   -0.3284    0.0000 C   0  0  0  0  0  0  0  0  0  0  0  0
    5.0104   -1.0259    0.0000 C   0  0  0  0  0  0  0  0  0  0  0  0
    3.7424   -0.2245    0.0000 C   0  0  0  0  0  0  0  0  0  0  0  0
    3.8024    1.2743    0.0000 C   0  0  0  0  0  0  0  0  0  0  0  0
    2.4144   -0.9219    0.0000 N   0  0  0  0  0  0  0  0  0  0  0  0
    2.1981   -2.4062    0.0000 C   0  0  0  0  0  0  0  0  0  0  0  0
    0.7195   -2.6592    0.0000 C   0  0  0  0  0  0  0  0  0  0  0  0
    0.1993   -4.0661    0.0000 C   0  0  0  0  0  0  0  0  0  0  0  0
    1.1576   -5.2200    0.0000 N   0  0  0  0  0  0  0  0  0  0  0  0
    2.6361   -4.9671    0.0000 C   0  0  0  0  0  0  0  0  0  0  0  0
    3.1563   -3.5602    0.0000 C   0  0  0  0  0  0  0  0  0  0  0  0
   -1.2792   -4.3190    0.0000 N   0  0  0  0  0  0  0  0  0  0  0  0
    0.0221   -1.3312    0.0000 N   0  0  0  0  0  0  0  0  0  0  0  0
    1.0696   -0.2575    0.0000 C   0  0  0  0  0  0  0  0  0  0  0  0
    0.8167    1.2210    0.0000 O   0  0  0  0  0  0  0  0  0  0  0  0
   -1.4622   -1.1148    0.0000 C   0  0  0  0  0  0  0  0  0  0  0  0
   -2.0170    0.2788    0.0000 C   0  0  0  0  0  0  0  0  0  0  0  0
   -3.5013    0.4952    0.0000 C   0  0  0  0  0  0  0  0  0  0  0  0
   -4.4308   -0.6821    0.0000 C   0  0  0  0  0  0  0  0  0  0  0  0
   -3.8761   -2.0757    0.0000 C   0  0  0  0  0  0  0  0  0  0  0  0
   -2.3917   -2.2921    0.0000 C   0  0  0  0  0  0  0  0  0  0  0  0
   -5.9152   -0.4657    0.0000 O   0  0  0  0  0  0  0  0  0  0  0  0
   -6.4700    0.9279    0.0000 C   0  0  0  0  0  0  0  0  0  0  0  0
   -5.5404    2.1052    0.0000 C   0  0  0  0  0  0  0  0  0  0  0  0
   -6.0952    3.4988    0.0000 C   0  0  0  0  0  0  0  0  0  0  0  0
   -7.5795    3.7151    0.0000 C   0  0  0  0  0  0  0  0  0  0  0  0
   -8.5091    2.5379    0.0000 C   0  0  0  0  0  0  0  0  0  0  0  0
   -7.9543    1.1442    0.0000 C   0  0  0  0  0  0  0  0  0  0  0  0
  1  2  2  0
  2  3  1  0
  3  4  2  0
  3  5  1  0
  5  6  1  0
  6  7  1  0
  7  8  1  0
  8  9  1  0
  9 10  1  0
  9 11  1  0
 11 12  1  0
 12 13  1  0
 13 14  2  0
 14 15  1  0
 15 16  2  0
 16 17  1  0
 14 18  1  0
 13 19  1  0
 19 20  1  0
 20 21  2  0
 19 22  1  0
 22 23  2  0
 23 24  1  0
 24 25  2  0
 25 26  1  0
 26 27  2  0
 25 28  1  0
 28 29  1  0
 29 30  2  0
 30 31  1  0
 31 32  2  0
 32 33  1  0
 33 34  2  0
 10  5  1  0
 20 11  1  0
 17 12  2  0
 27 22  1  0
 34 29  1  0
M  END
>  <BrandName>  (269) 


>  <Applicants>  (269) 
Principia Biopharma

>  <CHEMBL_ID>  (269) 
CHEMBL4650323

>  <Canonical_Smiles>  (269) 
C=CC(=O)N1CCCC(C1)N2C3=C(C(=NC=C3)N)N(C2=O)C4=CC=C(C=C4)OC5=CC=CC=C5

>  <Chirality>  (269) 
Single Stereoisomer

>  <First_Approval>  (269) 
nan

>  <Phase>  (269) 
3.0

>  <SC_Patent>  (269) 
nan

>  <Synonyms>  (269) 
PRN-2246 | PRN2246 | SAR-442168 | SAR442168 | TOLEBRUTINIB

>  <Withdrawn>  (269) 
nan

>  <Indications>  (269) 
nan

>  <Type>  (269) 
nan

>  <targets_id>  (269) 
nan

>  <Inchi>  (269) 
InChI=1S/C26H25N5O3/c1-2-23(32)29-16-6-7-19(17-29)30-22-14-15-28-25(27)24(22)31(26(30)33)18-10-12-21(13-11-18)34-20-8-4-3-5-9-20/h2-5,8-15,19H,1,6-7,16-17H2,(H2,27,28)/t19-/m1/s1

>  <stdInchikey>  (269) 
KOEUOFPEZFUWRF-LJQANCHMSA-N

>  <csid>  (269) 
88298633

>  <Links>  (269) 
|http://www.chemspider.com/Chemical-Structure.88298633.html|https://www.ebi.ac.uk/chembldb/compound/inspect/CHEMBL4650323|https://pubchem.ncbi.nlm.nih.gov/compound/124111565|https://www.guidetopharmacology.org/GRAC/LigandDisplayForward?10625|https://precision.fda.gov/uniisearch/srs/unii/8CZ82ZYY9X

>  <LinkName>  (269) 
|ChemSpider|ChEMBL|PubChem|Guide to Pharmacology|FDA SRS

>  <lig_pdb_ID>  (269) 


>  <pdb_IDs>  (269) 


>  <indicationDB>  (269) 


>  <uniprotId>  (269) 


>  <indicationG2P>  (269) 
None

>  <MW>  (269) 
455.2

>  <HBA>  (269) 
7

>  <HBD>  (269) 
1

>  <NRB>  (269) 
5

>  <TPSA>  (269) 
95.4

>  <LogP>  (269) 
3.9

>  <RoF>  (269) 
0

>  <Melting point>  (269) 
nan

>  <Targets>  (269) 
nan

>  <Kinase families>  (269) 


>  <FDA_approved>  (269) 


$$$$
Volasertib
     RDKit          2D

 45 50  0  0  0  0  0  0  0  0999 V2000
  -12.0065   -2.2609    0.0000 C   0  0  0  0  0  0  0  0  0  0  0  0
  -11.1582   -1.0238    0.0000 C   0  0  0  0  0  0  0  0  0  0  0  0
   -9.6627   -1.1399    0.0000 C   0  0  0  0  0  0  0  0  0  0  0  0
   -8.8144    0.0972    0.0000 N   0  0  0  0  0  0  0  0  0  0  0  0
   -7.3189   -0.0188    0.0000 C   0  0  0  0  0  0  0  0  0  0  0  0
   -6.4707    1.2183    0.0000 N   0  0  0  0  0  0  0  0  0  0  0  0
   -4.9752    1.1022    0.0000 C   0  0  0  0  0  0  0  0  0  0  0  0
   -4.3279   -0.2510    0.0000 N   0  0  0  0  0  0  0  0  0  0  0  0
   -5.1762   -1.4881    0.0000 C   0  0  0  0  0  0  0  0  0  0  0  0
   -6.6717   -1.3720    0.0000 C   0  0  0  0  0  0  0  0  0  0  0  0
   -7.5200   -2.6091    0.0000 N   0  0  0  0  0  0  0  0  0  0  0  0
   -9.0155   -2.4931    0.0000 C   0  0  0  0  0  0  0  0  0  0  0  0
   -9.8637   -3.7302    0.0000 O   0  0  0  0  0  0  0  0  0  0  0  0
   -6.8727   -3.9623    0.0000 C   0  0  0  0  0  0  0  0  0  0  0  0
   -4.1269    2.3393    0.0000 N   0  0  0  0  0  0  0  0  0  0  0  0
   -2.6314    2.2233    0.0000 C   0  0  0  0  0  0  0  0  0  0  0  0
   -1.9842    0.8701    0.0000 C   0  0  0  0  0  0  0  0  0  0  0  0
   -0.4887    0.7540    0.0000 C   0  0  0  0  0  0  0  0  0  0  0  0
    0.3596    1.9911    0.0000 C   0  0  0  0  0  0  0  0  0  0  0  0
   -0.2876    3.3443    0.0000 C   0  0  0  0  0  0  0  0  0  0  0  0
   -1.7831    3.4604    0.0000 C   0  0  0  0  0  0  0  0  0  0  0  0
    1.8551    1.8751    0.0000 C   0  0  0  0  0  0  0  0  0  0  0  0
    2.7034    3.1122    0.0000 O   0  0  0  0  0  0  0  0  0  0  0  0
    2.5024    0.5219    0.0000 N   0  0  0  0  0  0  0  0  0  0  0  0
    3.9979    0.4058    0.0000 C   0  0  0  0  0  0  0  0  0  0  0  0
    4.6451   -0.9473    0.0000 C   0  0  0  0  0  0  0  0  0  0  0  0
    6.1406   -1.0634    0.0000 C   0  0  0  0  0  0  0  0  0  0  0  0
    6.9889    0.1737    0.0000 C   0  0  0  0  0  0  0  0  0  0  0  0
    6.3416    1.5269    0.0000 C   0  0  0  0  0  0  0  0  0  0  0  0
    4.8461    1.6429    0.0000 C   0  0  0  0  0  0  0  0  0  0  0  0
    8.4844    0.0576    0.0000 N   0  0  0  0  0  0  0  0  0  0  0  0
    9.1316   -1.2955    0.0000 C   0  0  0  0  0  0  0  0  0  0  0  0
   10.6271   -1.4116    0.0000 C   0  0  0  0  0  0  0  0  0  0  0  0
   11.4754   -0.1745    0.0000 N   0  0  0  0  0  0  0  0  0  0  0  0
   10.8281    1.1787    0.0000 C   0  0  0  0  0  0  0  0  0  0  0  0
    9.3326    1.2947    0.0000 C   0  0  0  0  0  0  0  0  0  0  0  0
   12.9709   -0.2906    0.0000 C   0  0  0  0  0  0  0  0  0  0  0  0
   13.6181   -1.6437    0.0000 C   0  0  0  0  0  0  0  0  0  0  0  0
   14.8552   -2.4920    0.0000 C   0  0  0  0  0  0  0  0  0  0  0  0
   13.5020   -3.1392    0.0000 C   0  0  0  0  0  0  0  0  0  0  0  0
   -2.8324   -0.3670    0.0000 O   0  0  0  0  0  0  0  0  0  0  0  0
   -2.1852   -1.7202    0.0000 C   0  0  0  0  0  0  0  0  0  0  0  0
   -9.4617    1.4504    0.0000 C   0  0  0  0  0  0  0  0  0  0  0  0
   -8.6134    2.6875    0.0000 C   0  0  0  0  0  0  0  0  0  0  0  0
  -10.9572    1.5665    0.0000 C   0  0  0  0  0  0  0  0  0  0  0  0
  1  2  1  0
  3  2  1  1
  3  4  1  0
  4  5  1  0
  5  6  2  0
  6  7  1  0
  7  8  2  0
  8  9  1  0
  9 10  2  0
 10 11  1  0
 11 12  1  0
 12 13  2  0
 11 14  1  0
  7 15  1  0
 15 16  1  0
 16 17  2  0
 17 18  1  0
 18 19  2  0
 19 20  1  0
 20 21  2  0
 19 22  1  0
 22 23  2  0
 22 24  1  0
 25 24  1  6
 25 26  1  0
 26 27  1  0
 27 28  1  0
 28 29  1  0
 29 30  1  0
 28 31  1  1
 31 32  1  0
 32 33  1  0
 33 34  1  0
 34 35  1  0
 35 36  1  0
 34 37  1  0
 37 38  1  0
 38 39  1  0
 39 40  1  0
 17 41  1  0
 41 42  1  0
  4 43  1  0
 43 44  1  0
 43 45  1  0
 12  3  1  0
 10  5  1  0
 21 16  1  0
 30 25  1  0
 36 31  1  0
 40 38  1  0
M  END
>  <BrandName>  (270) 


>  <Applicants>  (270) 
Boehringer Ingelheim

>  <CHEMBL_ID>  (270) 
CHEMBL1233528

>  <Canonical_Smiles>  (270) 
CC[C@H]1N(c2nc(ncc2N(C1=O)C)Nc3c(cc(cc3)C(=O)N[C@H]4CC[C@@H](CC4)N5CCN(CC5)CC6CC6)OC)C(C)C

>  <Chirality>  (270) 
Single Stereoisomer

>  <First_Approval>  (270) 
nan

>  <Phase>  (270) 
3.0

>  <SC_Patent>  (270) 
nan

>  <Synonyms>  (270) 
BI 6727 | BI-6727 | BI6727 | VOLASERTIB

>  <Withdrawn>  (270) 
{'', 'Study NCT02905994 in United States was Withdrawn during PHASE1 because Funding Withdrawn'}

>  <Indications>  (270) 
nan

>  <Type>  (270) 
1

>  <targets_id>  (270) 
P53350

>  <Inchi>  (270) 
InChI=1S/C34H50N8O3/c1-6-28-33(44)39(4)29-20-35-34(38-31(29)42(28)22(2)3)37-27-14-9-24(19-30(27)45-5)32(43)36-25-10-12-26(13-11-25)41-17-15-40(16-18-41)21-23-7-8-23/h9,14,19-20,22-23,25-26,28H,6-8,10-13,15-18,21H2,1-5H3,(H,36,43)(H,35,37,38)/t25-,26-,28-/m1/s1

>  <stdInchikey>  (270) 
SXNJFOWDRLKDSF-STROYTFGSA-N

>  <csid>  (270) 
26327706

>  <Links>  (270) 
|http://www.chemspider.com/Chemical-Structure.26327706.html|https://www.ebi.ac.uk/chembldb/compound/inspect/CHEMBL1233528|https://go.drugbank.com/drugs/DB12062|https://www.rcsb.org/ligand/IBI|https://www.ebi.ac.uk/pdbe-srv/pdbechem/chemicalCompound/show/IBI|https://www.guidetopharmacology.org/GRAC/LigandDisplayForward?7947|https://precision.fda.gov/uniisearch/srs/unii/6EM57086EA|https://www.bindingdb.org/bind/chemsearch/marvin/MolStructure.jsp?monomerid=50402023

>  <LinkName>  (270) 
|ChemSpider|ChEMBL|DrugBank|RCSB|PDBe|Guide to Pharmacology|FDA SRS|BindingDB

>  <lig_pdb_ID>  (270) 
IBI

>  <pdb_IDs>  (270) 
3fc2 5v67 5vbr 7lak 7lej 7n7n

>  <indicationDB>  (270) 


>  <uniprotId>  (270) 


>  <indicationG2P>  (270) 
None

>  <MW>  (270) 
618.4

>  <HBA>  (270) 
9

>  <HBD>  (270) 
2

>  <NRB>  (270) 
10

>  <TPSA>  (270) 
106.2

>  <LogP>  (270) 
4.3

>  <RoF>  (270) 
1

>  <Melting point>  (270) 
nan

>  <Targets>  (270) 
PLK1

>  <Kinase families>  (270) 
Other

>  <FDA_approved>  (270) 


$$$$
Zanzalintinib
     RDKit          2D

 39 43  0  0  0  0  0  0  0  0999 V2000
  -10.4134   -0.8019    0.0000 C   0  0  0  0  0  0  0  0  0  0  0  0
   -9.4306    0.3313    0.0000 O   0  0  0  0  0  0  0  0  0  0  0  0
   -7.9579    0.0468    0.0000 C   0  0  0  0  0  0  0  0  0  0  0  0
   -7.4679   -1.3709    0.0000 C   0  0  0  0  0  0  0  0  0  0  0  0
   -5.9951   -1.6554    0.0000 C   0  0  0  0  0  0  0  0  0  0  0  0
   -5.5051   -3.0731    0.0000 N   0  0  0  0  0  0  0  0  0  0  0  0
   -4.0323   -3.3576    0.0000 C   0  0  0  0  0  0  0  0  0  0  0  0
   -3.0496   -2.2244    0.0000 C   0  0  0  0  0  0  0  0  0  0  0  0
   -3.5396   -0.8067    0.0000 C   0  0  0  0  0  0  0  0  0  0  0  0
   -2.5568    0.3265    0.0000 O   0  0  0  0  0  0  0  0  0  0  0  0
   -1.0840    0.0420    0.0000 C   0  0  0  0  0  0  0  0  0  0  0  0
   -0.5940   -1.3757    0.0000 C   0  0  0  0  0  0  0  0  0  0  0  0
    0.8788   -1.6603    0.0000 C   0  0  0  0  0  0  0  0  0  0  0  0
    1.8615   -0.5270    0.0000 C   0  0  0  0  0  0  0  0  0  0  0  0
    1.3715    0.8907    0.0000 C   0  0  0  0  0  0  0  0  0  0  0  0
   -0.1012    1.1752    0.0000 C   0  0  0  0  0  0  0  0  0  0  0  0
    3.3343   -0.8116    0.0000 N   0  0  0  0  0  0  0  0  0  0  0  0
    3.8243   -2.2293    0.0000 C   0  0  0  0  0  0  0  0  0  0  0  0
    2.8415   -3.3625    0.0000 O   0  0  0  0  0  0  0  0  0  0  0  0
    5.2971   -2.5138    0.0000 C   0  0  0  0  0  0  0  0  0  0  0  0
    6.5837   -3.2848    0.0000 C   0  0  0  0  0  0  0  0  0  0  0  0
    5.2726   -4.0136    0.0000 C   0  0  0  0  0  0  0  0  0  0  0  0
    5.8330   -1.1128    0.0000 C   0  0  0  0  0  0  0  0  0  0  0  0
    4.8877    0.0518    0.0000 O   0  0  0  0  0  0  0  0  0  0  0  0
    7.3143   -0.8764    0.0000 N   0  0  0  0  0  0  0  0  0  0  0  0
    7.8502    0.5246    0.0000 C   0  0  0  0  0  0  0  0  0  0  0  0
    9.3314    0.7610    0.0000 C   0  0  0  0  0  0  0  0  0  0  0  0
    9.8674    2.1619    0.0000 C   0  0  0  0  0  0  0  0  0  0  0  0
    8.9220    3.3266    0.0000 C   0  0  0  0  0  0  0  0  0  0  0  0
    9.4580    4.7276    0.0000 F   0  0  0  0  0  0  0  0  0  0  0  0
    7.4408    3.0902    0.0000 C   0  0  0  0  0  0  0  0  0  0  0  0
    6.9049    1.6892    0.0000 C   0  0  0  0  0  0  0  0  0  0  0  0
   -5.0123   -0.5222    0.0000 C   0  0  0  0  0  0  0  0  0  0  0  0
   -5.5023    0.8955    0.0000 C   0  0  0  0  0  0  0  0  0  0  0  0
   -6.9751    1.1800    0.0000 C   0  0  0  0  0  0  0  0  0  0  0  0
   -7.4651    2.5977    0.0000 C   0  0  0  0  0  0  0  0  0  0  0  0
   -8.9379    2.8822    0.0000 O   0  0  0  0  0  0  0  0  0  0  0  0
   -6.4823    3.7309    0.0000 N   0  0  0  0  0  0  0  0  0  0  0  0
   -6.9723    5.1486    0.0000 C   0  0  0  0  0  0  0  0  0  0  0  0
  1  2  1  0
  2  3  1  0
  3  4  2  0
  4  5  1  0
  5  6  2  0
  6  7  1  0
  7  8  2  0
  8  9  1  0
  9 10  1  0
 10 11  1  0
 11 12  2  0
 12 13  1  0
 13 14  2  0
 14 15  1  0
 15 16  2  0
 14 17  1  0
 17 18  1  0
 18 19  2  0
 18 20  1  0
 20 21  1  0
 21 22  1  0
 20 23  1  0
 23 24  2  0
 23 25  1  0
 25 26  1  0
 26 27  2  0
 27 28  1  0
 28 29  2  0
 29 30  1  0
 29 31  1  0
 31 32  2  0
  9 33  2  0
 33 34  1  0
 34 35  2  0
 35 36  1  0
 36 37  2  0
 36 38  1  0
 38 39  1  0
 35  3  1  0
 33  5  1  0
 16 11  1  0
 22 20  1  0
 32 26  1  0
M  END
>  <BrandName>  (271) 


>  <Applicants>  (271) 
Exelixis

>  <CHEMBL_ID>  (271) 
CHEMBL5314428

>  <Canonical_Smiles>  (271) 
COC1=CC2=NC=CC(OC3C=CC(=CC=3)NC(=O)C3(CC3)C(=O)NC3C=CC(F)=CC=3)=C2C=C1C(=O)NC

>  <Chirality>  (271) 
Achiral Molecule

>  <First_Approval>  (271) 
nan

>  <Phase>  (271) 
3.0

>  <SC_Patent>  (271) 
nan

>  <Synonyms>  (271) 
XL 092 | XL-092 | XL092 | ZANZALINTINIB

>  <Withdrawn>  (271) 
{''}

>  <Indications>  (271) 
nan

>  <Type>  (271) 
nan

>  <targets_id>  (271) 
nan

>  <Inchi>  (271) 
InChI=1S/C29H25FN4O5/c1-31-26(35)22-15-21-23(16-25(22)38-2)32-14-11-24(21)39-20-9-7-19(8-10-20)34-28(37)29(12-13-29)27(36)33-18-5-3-17(30)4-6-18/h3-11,14-16H,12-13H2,1-2H3,(H,31,35)(H,33,36)(H,34,37)

>  <stdInchikey>  (271) 
JSPCKALGNNVYOO-UHFFFAOYSA-N

>  <csid>  (271) 
114641993

>  <Links>  (271) 
|http://www.chemspider.com/Chemical-Structure.114641993.html|https://www.ebi.ac.uk/chembldb/compound/inspect/CHEMBL5314428|https://pubchem.ncbi.nlm.nih.gov/compound/139350422|https://go.drugbank.com/drugs/DB17525

>  <LinkName>  (271) 
|ChemSpider|ChEMBL|PubChem|DrugBank

>  <lig_pdb_ID>  (271) 


>  <pdb_IDs>  (271) 


>  <indicationDB>  (271) 


>  <uniprotId>  (271) 


>  <indicationG2P>  (271) 


>  <MW>  (271) 
528.2

>  <HBA>  (271) 
6

>  <HBD>  (271) 
3

>  <NRB>  (271) 
8

>  <TPSA>  (271) 
118.7

>  <LogP>  (271) 
4.9

>  <RoF>  (271) 
1

>  <Melting point>  (271) 
nan

>  <Targets>  (271) 
nan

>  <Kinase families>  (271) 


>  <FDA_approved>  (271) 


$$$$
Zongertinib
     RDKit          2D

 40 45  0  0  0  0  0  0  0  0999 V2000
  -10.4620    4.9919    0.0000 C   0  0  0  0  0  0  0  0  0  0  0  0
  -10.5592    3.4951    0.0000 C   0  0  0  0  0  0  0  0  0  0  0  0
   -9.3115    2.6625    0.0000 C   0  0  0  0  0  0  0  0  0  0  0  0
   -7.9665    3.3267    0.0000 O   0  0  0  0  0  0  0  0  0  0  0  0
   -9.4087    1.1656    0.0000 N   0  0  0  0  0  0  0  0  0  0  0  0
   -8.1609    0.3330    0.0000 C   0  0  0  0  0  0  0  0  0  0  0  0
   -6.8160    0.9973    0.0000 C   0  0  0  0  0  0  0  0  0  0  0  0
   -5.5683    0.1647    0.0000 C   0  0  0  0  0  0  0  0  0  0  0  0
   -5.6655   -1.3322    0.0000 N   0  0  0  0  0  0  0  0  0  0  0  0
   -4.4178   -2.1648    0.0000 C   0  0  0  0  0  0  0  0  0  0  0  0
   -4.5150   -3.6616    0.0000 N   0  0  0  0  0  0  0  0  0  0  0  0
   -3.2673   -4.4942    0.0000 C   0  0  0  0  0  0  0  0  0  0  0  0
   -1.9224   -3.8300    0.0000 C   0  0  0  0  0  0  0  0  0  0  0  0
   -0.6747   -4.6626    0.0000 N   0  0  0  0  0  0  0  0  0  0  0  0
    0.6702   -3.9983    0.0000 C   0  0  0  0  0  0  0  0  0  0  0  0
    0.7674   -2.5015    0.0000 N   0  0  0  0  0  0  0  0  0  0  0  0
   -0.4803   -1.6689    0.0000 C   0  0  0  0  0  0  0  0  0  0  0  0
   -0.3831   -0.1720    0.0000 N   0  0  0  0  0  0  0  0  0  0  0  0
    0.9618    0.4922    0.0000 C   0  0  0  0  0  0  0  0  0  0  0  0
    2.2095   -0.3404    0.0000 C   0  0  0  0  0  0  0  0  0  0  0  0
    3.5544    0.3239    0.0000 C   0  0  0  0  0  0  0  0  0  0  0  0
    3.6516    1.8207    0.0000 C   0  0  0  0  0  0  0  0  0  0  0  0
    4.9965    2.4849    0.0000 O   0  0  0  0  0  0  0  0  0  0  0  0
    6.2442    1.6523    0.0000 C   0  0  0  0  0  0  0  0  0  0  0  0
    6.1470    0.1555    0.0000 C   0  0  0  0  0  0  0  0  0  0  0  0
    7.3947   -0.6771    0.0000 C   0  0  0  0  0  0  0  0  0  0  0  0
    8.7397   -0.0129    0.0000 C   0  0  0  0  0  0  0  0  0  0  0  0
    8.8369    1.4840    0.0000 C   0  0  0  0  0  0  0  0  0  0  0  0
    7.5892    2.3166    0.0000 C   0  0  0  0  0  0  0  0  0  0  0  0
   10.2905    1.8541    0.0000 N   0  0  0  0  0  0  0  0  0  0  0  0
   11.0917    0.5860    0.0000 C   0  0  0  0  0  0  0  0  0  0  0  0
   10.1332   -0.5678    0.0000 N   0  0  0  0  0  0  0  0  0  0  0  0
   10.5033   -2.0215    0.0000 C   0  0  0  0  0  0  0  0  0  0  0  0
    2.4039    2.6533    0.0000 C   0  0  0  0  0  0  0  0  0  0  0  0
    2.5011    4.1502    0.0000 C   0  0  0  0  0  0  0  0  0  0  0  0
    1.0590    1.9891    0.0000 C   0  0  0  0  0  0  0  0  0  0  0  0
   -1.8252   -2.3331    0.0000 C   0  0  0  0  0  0  0  0  0  0  0  0
   -3.0729   -1.5005    0.0000 N   0  0  0  0  0  0  0  0  0  0  0  0
   -7.0104   -1.9964    0.0000 C   0  0  0  0  0  0  0  0  0  0  0  0
   -8.2581   -1.1638    0.0000 C   0  0  0  0  0  0  0  0  0  0  0  0
  1  2  2  0
  2  3  1  0
  3  4  2  0
  3  5  1  0
  5  6  1  0
  6  7  1  0
  7  8  1  0
  8  9  1  0
  9 10  1  0
 10 11  2  0
 11 12  1  0
 12 13  2  0
 13 14  1  0
 14 15  2  0
 15 16  1  0
 16 17  2  0
 17 18  1  0
 18 19  1  0
 19 20  2  0
 20 21  1  0
 21 22  2  0
 22 23  1  0
 23 24  1  0
 24 25  2  0
 25 26  1  0
 26 27  2  0
 27 28  1  0
 28 29  2  0
 28 30  1  0
 30 31  2  0
 31 32  1  0
 32 33  1  0
 22 34  1  0
 34 35  1  0
 34 36  2  0
 17 37  1  0
 37 38  2  0
  9 39  1  0
 39 40  1  0
 40  6  1  0
 38 10  1  0
 37 13  1  0
 36 19  1  0
 29 24  1  0
 32 27  1  0
M  END
>  <BrandName>  (272) 


>  <Applicants>  (272) 
('Boehringer Ingelheim',)

>  <CHEMBL_ID>  (272) 
CHEMBL5314498

>  <Canonical_Smiles>  (272) 
C=CC(=O)NC1CCN(c2ncc3ncnc(Nc4ccc(Oc5ccc6c(c5)ncn6C)c(C)c4)c3n2)CC1

>  <Chirality>  (272) 
Achiral Molecule

>  <First_Approval>  (272) 
nan

>  <Phase>  (272) 
3.0

>  <SC_Patent>  (272) 
nan

>  <Synonyms>  (272) 
ZONGERTINIB

>  <Withdrawn>  (272) 
{''}

>  <Indications>  (272) 
nan

>  <Type>  (272) 
nan

>  <targets_id>  (272) 
nan

>  <Inchi>  (272) 
InChI=1S/C29H29N9O2/c1-4-26(39)34-19-9-11-38(12-10-19)29-30-15-23-27(36-29)28(32-16-31-23)35-20-5-8-25(18(2)13-20)40-21-6-7-24-22(14-21)33-17-37(24)3/h4-8,13-17,19H,1,9-12H2,2-3H3,(H,34,39)(H,31,32,35)

>  <stdInchikey>  (272) 
YSGNGFPNTLERCR-UHFFFAOYSA-N

>  <csid>  (272) 
128921192

>  <Links>  (272) 
|http://www.chemspider.com/Chemical-Structure.128921192.html|https://www.ebi.ac.uk/chembldb/compound/inspect/CHEMBL5314498|https://pubchem.ncbi.nlm.nih.gov/compound/160283094

>  <LinkName>  (272) 
|ChemSpider|ChEMBL|PubChem

>  <lig_pdb_ID>  (272) 


>  <pdb_IDs>  (272) 


>  <indicationDB>  (272) 


>  <uniprotId>  (272) 


>  <indicationG2P>  (272) 


>  <MW>  (272) 
535.2

>  <HBA>  (272) 
10

>  <HBD>  (272) 
2

>  <NRB>  (272) 
7

>  <TPSA>  (272) 
123.0

>  <LogP>  (272) 
4.4

>  <RoF>  (272) 
1

>  <Melting point>  (272) 
nan

>  <Targets>  (272) 
nan

>  <Kinase families>  (272) 


>  <FDA_approved>  (272) 


$$$$
Enzastaurin
     RDKit          2D

 39 45  0  0  0  0  0  0  0  0999 V2000
    0.8574   -3.6589    0.0000 C   0  0  0  0  0  0  0  0  0  0  0  0
    2.1018   -2.8214    0.0000 N   0  0  0  0  0  0  0  0  0  0  0  0
    2.1557   -1.3224    0.0000 C   0  0  0  0  0  0  0  0  0  0  0  0
    3.5981   -0.9104    0.0000 C   0  0  0  0  0  0  0  0  0  0  0  0
    4.4356   -2.1548    0.0000 C   0  0  0  0  0  0  0  0  0  0  0  0
    3.5108   -3.3359    0.0000 C   0  0  0  0  0  0  0  0  0  0  0  0
    4.0713   -4.7273    0.0000 C   0  0  0  0  0  0  0  0  0  0  0  0
    5.5565   -4.9376    0.0000 C   0  0  0  0  0  0  0  0  0  0  0  0
    6.4812   -3.7565    0.0000 C   0  0  0  0  0  0  0  0  0  0  0  0
    5.9207   -2.3652    0.0000 C   0  0  0  0  0  0  0  0  0  0  0  0
    4.1126    0.4986    0.0000 C   0  0  0  0  0  0  0  0  0  0  0  0
    3.2751    1.7430    0.0000 C   0  0  0  0  0  0  0  0  0  0  0  0
    4.1998    2.9241    0.0000 C   0  0  0  0  0  0  0  0  0  0  0  0
    3.7878    4.3664    0.0000 O   0  0  0  0  0  0  0  0  0  0  0  0
    5.6088    2.4096    0.0000 N   0  0  0  0  0  0  0  0  0  0  0  0
    5.5549    0.9105    0.0000 C   0  0  0  0  0  0  0  0  0  0  0  0
    6.7359   -0.0142    0.0000 O   0  0  0  0  0  0  0  0  0  0  0  0
    1.7760    1.7969    0.0000 C   0  0  0  0  0  0  0  0  0  0  0  0
    0.8513    0.6159    0.0000 C   0  0  0  0  0  0  0  0  0  0  0  0
   -0.5577    1.1304    0.0000 N   0  0  0  0  0  0  0  0  0  0  0  0
   -0.5038    2.6294    0.0000 C   0  0  0  0  0  0  0  0  0  0  0  0
    0.9385    3.0414    0.0000 C   0  0  0  0  0  0  0  0  0  0  0  0
    1.3029    4.4964    0.0000 C   0  0  0  0  0  0  0  0  0  0  0  0
    0.2250    5.5395    0.0000 C   0  0  0  0  0  0  0  0  0  0  0  0
   -1.2173    5.1276    0.0000 C   0  0  0  0  0  0  0  0  0  0  0  0
   -1.5817    3.6725    0.0000 C   0  0  0  0  0  0  0  0  0  0  0  0
   -1.8021    0.2929    0.0000 C   0  0  0  0  0  0  0  0  0  0  0  0
   -3.1496    0.9518    0.0000 C   0  0  0  0  0  0  0  0  0  0  0  0
   -4.3941    0.1143    0.0000 C   0  0  0  0  0  0  0  0  0  0  0  0
   -4.2910   -1.3821    0.0000 N   0  0  0  0  0  0  0  0  0  0  0  0
   -2.9435   -2.0411    0.0000 C   0  0  0  0  0  0  0  0  0  0  0  0
   -1.6990   -1.2036    0.0000 C   0  0  0  0  0  0  0  0  0  0  0  0
   -5.5354   -2.2196    0.0000 C   0  0  0  0  0  0  0  0  0  0  0  0
   -6.8829   -1.5607    0.0000 C   0  0  0  0  0  0  0  0  0  0  0  0
   -6.9860   -0.0642    0.0000 C   0  0  0  0  0  0  0  0  0  0  0  0
   -8.3335    0.5948    0.0000 C   0  0  0  0  0  0  0  0  0  0  0  0
   -9.5779   -0.2427    0.0000 C   0  0  0  0  0  0  0  0  0  0  0  0
   -9.4748   -1.7392    0.0000 C   0  0  0  0  0  0  0  0  0  0  0  0
   -8.1273   -2.3982    0.0000 N   0  0  0  0  0  0  0  0  0  0  0  0
  1  2  1  0
  2  3  1  0
  3  4  2  0
  4  5  1  0
  5  6  2  0
  6  7  1  0
  7  8  2  0
  8  9  1  0
  9 10  2  0
  4 11  1  0
 11 12  2  0
 12 13  1  0
 13 14  2  0
 13 15  1  0
 15 16  1  0
 16 17  2  0
 12 18  1  0
 18 19  2  0
 19 20  1  0
 20 21  1  0
 21 22  2  0
 22 23  1  0
 23 24  2  0
 24 25  1  0
 25 26  2  0
 20 27  1  0
 27 28  1  0
 28 29  1  0
 29 30  1  0
 30 31  1  0
 31 32  1  0
 30 33  1  0
 33 34  1  0
 34 35  2  0
 35 36  1  0
 36 37  2  0
 37 38  1  0
 38 39  2  0
  6  2  1  0
 10  5  1  0
 16 11  1  0
 22 18  1  0
 26 21  1  0
 32 27  1  0
 39 34  1  0
M  END
>  <BrandName>  (273) 
Kinenza

>  <Applicants>  (273) 
Eli Lilly

>  <CHEMBL_ID>  (273) 
CHEMBL300138

>  <Canonical_Smiles>  (273) 
Cn1cc(c2c1cccc2)C3=C(C(=O)NC3=O)c4cn(c5c4cccc5)C6CCN(CC6)Cc7ccccn7

>  <Chirality>  (273) 
Achiral Molecule

>  <First_Approval>  (273) 
nan

>  <Phase>  (273) 
3.0

>  <SC_Patent>  (273) 
nan

>  <Synonyms>  (273) 
DB-102 | DB102 | ENZASTAURIN | ENZASTAURINA | ENZASTAURINE | KINENZA | LY-317615 | LY317615

>  <Withdrawn>  (273) 
{''}

>  <Indications>  (273) 
nan

>  <Type>  (273) 
nan

>  <targets_id>  (273) 
nan

>  <Inchi>  (273) 
InChI=1S/C32H29N5O2/c1-35-19-25(23-9-2-4-11-27(23)35)29-30(32(39)34-31(29)38)26-20-37(28-12-5-3-10-24(26)28)22-13-16-36(17-14-22)18-21-8-6-7-15-33-21/h2-12,15,19-20,22H,13-14,16-18H2,1H3,(H,34,38,39)

>  <stdInchikey>  (273) 
AXRCEOKUDYDWLF-UHFFFAOYSA-N

>  <csid>  (273) 
153463

>  <Links>  (273) 
|http://www.chemspider.com/Chemical-Structure.153463.html|https://www.ebi.ac.uk/chembldb/compound/inspect/CHEMBL300138|https://pubchem.ncbi.nlm.nih.gov/compound/176167|https://go.drugbank.com/drugs/DB06486|https://www.guidetopharmacology.org/GRAC/LigandDisplayForward?5693|https://zinc15.docking.org/substances/ZINC000001494900|https://precision.fda.gov/uniisearch/srs/unii/UC96G28EQF|https://www.bindingdb.org/bind/chemsearch/marvin/MolStructure.jsp?monomerid=50128285

>  <LinkName>  (273) 
|ChemSpider|ChEMBL|PubChem|DrugBank|Guide to Pharmacology|ZINC|FDA SRS|BindingDB

>  <lig_pdb_ID>  (273) 


>  <pdb_IDs>  (273) 


>  <indicationDB>  (273) 


>  <uniprotId>  (273) 


>  <indicationG2P>  (273) 
None

>  <MW>  (273) 
515.2

>  <HBA>  (273) 
6

>  <HBD>  (273) 
1

>  <NRB>  (273) 
5

>  <TPSA>  (273) 
72.2

>  <LogP>  (273) 
4.9

>  <RoF>  (273) 
1

>  <Melting point>  (273) 
nan

>  <Targets>  (273) 
nan

>  <Kinase families>  (273) 


>  <FDA_approved>  (273) 


$$$$
Radotinib
     RDKit          2D

 39 43  0  0  0  0  0  0  0  0999 V2000
    5.6804   -4.6621    0.0000 C   0  0  0  0  0  0  0  0  0  0  0  0
    4.3180   -4.0345    0.0000 C   0  0  0  0  0  0  0  0  0  0  0  0
    3.0933   -4.9006    0.0000 C   0  0  0  0  0  0  0  0  0  0  0  0
    1.7309   -4.2729    0.0000 C   0  0  0  0  0  0  0  0  0  0  0  0
    1.5932   -2.7793    0.0000 C   0  0  0  0  0  0  0  0  0  0  0  0
    2.8180   -1.9132    0.0000 C   0  0  0  0  0  0  0  0  0  0  0  0
    4.1803   -2.5408    0.0000 C   0  0  0  0  0  0  0  0  0  0  0  0
    5.4051   -1.6748    0.0000 N   0  0  0  0  0  0  0  0  0  0  0  0
    5.2674   -0.1811    0.0000 C   0  0  0  0  0  0  0  0  0  0  0  0
    6.4921    0.6849    0.0000 N   0  0  0  0  0  0  0  0  0  0  0  0
    6.3545    2.1786    0.0000 C   0  0  0  0  0  0  0  0  0  0  0  0
    4.9921    2.8062    0.0000 C   0  0  0  0  0  0  0  0  0  0  0  0
    3.7674    1.9402    0.0000 C   0  0  0  0  0  0  0  0  0  0  0  0
    3.9050    0.4465    0.0000 N   0  0  0  0  0  0  0  0  0  0  0  0
    2.4050    2.5678    0.0000 C   0  0  0  0  0  0  0  0  0  0  0  0
    2.2673    4.0615    0.0000 C   0  0  0  0  0  0  0  0  0  0  0  0
    0.9050    4.6891    0.0000 N   0  0  0  0  0  0  0  0  0  0  0  0
   -0.3198    3.8230    0.0000 C   0  0  0  0  0  0  0  0  0  0  0  0
   -0.1821    2.3294    0.0000 C   0  0  0  0  0  0  0  0  0  0  0  0
    1.1803    1.7017    0.0000 N   0  0  0  0  0  0  0  0  0  0  0  0
    0.2308   -2.1516    0.0000 C   0  0  0  0  0  0  0  0  0  0  0  0
   -0.9939   -3.0177    0.0000 O   0  0  0  0  0  0  0  0  0  0  0  0
    0.0932   -0.6580    0.0000 N   0  0  0  0  0  0  0  0  0  0  0  0
   -1.2692   -0.0303    0.0000 C   0  0  0  0  0  0  0  0  0  0  0  0
   -1.4069    1.4633    0.0000 C   0  0  0  0  0  0  0  0  0  0  0  0
   -2.7692    2.0909    0.0000 C   0  0  0  0  0  0  0  0  0  0  0  0
   -3.9940    1.2249    0.0000 C   0  0  0  0  0  0  0  0  0  0  0  0
   -3.8563   -0.2688    0.0000 C   0  0  0  0  0  0  0  0  0  0  0  0
   -2.4939   -0.8964    0.0000 C   0  0  0  0  0  0  0  0  0  0  0  0
   -5.0810   -1.1348    0.0000 N   0  0  0  0  0  0  0  0  0  0  0  0
   -5.1003   -2.6347    0.0000 C   0  0  0  0  0  0  0  0  0  0  0  0
   -6.5327   -3.0799    0.0000 C   0  0  0  0  0  0  0  0  0  0  0  0
   -7.3987   -1.8552    0.0000 N   0  0  0  0  0  0  0  0  0  0  0  0
   -6.5016   -0.6530    0.0000 C   0  0  0  0  0  0  0  0  0  0  0  0
   -7.0145   -4.5004    0.0000 C   0  0  0  0  0  0  0  0  0  0  0  0
   -2.9069    3.5846    0.0000 C   0  0  0  0  0  0  0  0  0  0  0  0
   -3.0445    5.0783    0.0000 F   0  0  0  0  0  0  0  0  0  0  0  0
   -4.4006    3.4470    0.0000 F   0  0  0  0  0  0  0  0  0  0  0  0
   -1.4132    3.7223    0.0000 F   0  0  0  0  0  0  0  0  0  0  0  0
  1  2  1  0
  2  3  2  0
  3  4  1  0
  4  5  2  0
  5  6  1  0
  6  7  2  0
  7  8  1  0
  8  9  1  0
  9 10  2  0
 10 11  1  0
 11 12  2  0
 12 13  1  0
 13 14  2  0
 13 15  1  0
 15 16  2  0
 16 17  1  0
 17 18  2  0
 18 19  1  0
 19 20  2  0
  5 21  1  0
 21 22  2  0
 21 23  1  0
 23 24  1  0
 24 25  2  0
 25 26  1  0
 26 27  2  0
 27 28  1  0
 28 29  2  0
 28 30  1  0
 30 31  1  0
 31 32  2  0
 32 33  1  0
 33 34  2  0
 32 35  1  0
 26 36  1  0
 36 37  1  0
 36 38  1  0
 36 39  1  0
  7  2  1  0
 14  9  1  0
 20 15  1  0
 29 24  1  0
 34 30  1  0
M  END
>  <BrandName>  (274) 


>  <Applicants>  (274) 
Il-Yang Pharmaceutical

>  <CHEMBL_ID>  (274) 
CHEMBL4297524

>  <Canonical_Smiles>  (274) 
Cc1ccc(cc1Nc2nccc(n2)c3cnccn3)C(=O)Nc4cc(cc(c4)n5cc(nc5)C)C(F)(F)F

>  <Chirality>  (274) 
Achiral Molecule

>  <First_Approval>  (274) 
nan

>  <Phase>  (274) 
3.0

>  <SC_Patent>  (274) 
nan

>  <Synonyms>  (274) 
IY5511 | RADOTINIB

>  <Withdrawn>  (274) 
{''}

>  <Indications>  (274) 
Radotinib is indicated for the treatment of different types of cancer, most notably Philadelphia chromosome-positive (Ph+) chronic myeloid leukemia (CML) with resistance or intolerance of other Bcr-Abl tyrosine-kinase inhibitors, such as patients resistant or intolerant to imatinib.

>  <Type>  (274) 
nan

>  <targets_id>  (274) 
P00519|P09619

>  <Inchi>  (274) 
InChI=1S/C27H21F3N8O/c1-16-3-4-18(9-23(16)37-26-33-6-5-22(36-26)24-13-31-7-8-32-24)25(39)35-20-10-19(27(28,29)30)11-21(12-20)38-14-17(2)34-15-38/h3-15H,1-2H3,(H,35,39)(H,33,36,37)

>  <stdInchikey>  (274) 
DUPWHXBITIZIKZ-UHFFFAOYSA-N

>  <csid>  (274) 
17222861

>  <Links>  (274) 
|http://www.chemspider.com/Chemical-Structure.17222861.html|https://www.ebi.ac.uk/chembldb/compound/inspect/CHEMBL4297524|https://pubchem.ncbi.nlm.nih.gov/compound/16063245|https://go.drugbank.com/drugs/DB12323|https://www.guidetopharmacology.org/GRAC/LigandDisplayForward?7814|https://zinc15.docking.org/substances/ZINC000059749972|https://precision.fda.gov/uniisearch/srs/unii/I284LJY110

>  <LinkName>  (274) 
|ChemSpider|ChEMBL|PubChem|DrugBank|Guide to Pharmacology|ZINC|FDA SRS

>  <lig_pdb_ID>  (274) 


>  <pdb_IDs>  (274) 


>  <indicationDB>  (274) 


>  <uniprotId>  (274) 


>  <indicationG2P>  (274) 
None

>  <MW>  (274) 
530.2

>  <HBA>  (274) 
8

>  <HBD>  (274) 
2

>  <NRB>  (274) 
6

>  <TPSA>  (274) 
110.5

>  <LogP>  (274) 
5.8

>  <RoF>  (274) 
2

>  <Melting point>  (274) 
nan

>  <Targets>  (274) 
ABL1; PDGFRB

>  <Kinase families>  (274) 
Tyr

>  <FDA_approved>  (274) 


$$$$
Savolitinib
     RDKit          2D

 26 30  0  0  0  0  0  0  0  0999 V2000
   -0.2359   -1.8827    0.0000 C   0  0  0  0  0  0  0  0  0  0  0  0
   -1.1426   -0.6877    0.0000 C   0  0  0  0  0  0  0  0  0  0  0  0
   -2.6308   -0.8755    0.0000 C   0  0  0  0  0  0  0  0  0  0  0  0
   -3.2123   -2.2582    0.0000 C   0  0  0  0  0  0  0  0  0  0  0  0
   -4.7005   -2.4459    0.0000 C   0  0  0  0  0  0  0  0  0  0  0  0
   -5.6072   -1.2510    0.0000 C   0  0  0  0  0  0  0  0  0  0  0  0
   -7.1020   -1.1252    0.0000 N   0  0  0  0  0  0  0  0  0  0  0  0
   -7.4443    0.3352    0.0000 C   0  0  0  0  0  0  0  0  0  0  0  0
   -6.1611    1.1120    0.0000 C   0  0  0  0  0  0  0  0  0  0  0  0
   -5.0257    0.1317    0.0000 N   0  0  0  0  0  0  0  0  0  0  0  0
   -3.5375    0.3195    0.0000 C   0  0  0  0  0  0  0  0  0  0  0  0
   -0.5611    0.6950    0.0000 N   0  0  0  0  0  0  0  0  0  0  0  0
    0.8993    1.0373    0.0000 C   0  0  0  0  0  0  0  0  0  0  0  0
    1.0250    2.5320    0.0000 C   0  0  0  0  0  0  0  0  0  0  0  0
    2.3824    3.1704    0.0000 N   0  0  0  0  0  0  0  0  0  0  0  0
    3.6140    2.3142    0.0000 C   0  0  0  0  0  0  0  0  0  0  0  0
    3.4882    0.8194    0.0000 C   0  0  0  0  0  0  0  0  0  0  0  0
    2.1309    0.1810    0.0000 N   0  0  0  0  0  0  0  0  0  0  0  0
    4.7198   -0.0368    0.0000 C   0  0  0  0  0  0  0  0  0  0  0  0
    6.1364    0.4562    0.0000 C   0  0  0  0  0  0  0  0  0  0  0  0
    7.0431   -0.7387    0.0000 N   0  0  0  0  0  0  0  0  0  0  0  0
    6.1869   -1.9703    0.0000 N   0  0  0  0  0  0  0  0  0  0  0  0
    4.7510   -1.5365    0.0000 C   0  0  0  0  0  0  0  0  0  0  0  0
    6.6799   -3.3869    0.0000 C   0  0  0  0  0  0  0  0  0  0  0  0
   -0.3577    3.1135    0.0000 N   0  0  0  0  0  0  0  0  0  0  0  0
   -1.3380    1.9781    0.0000 N   0  0  0  0  0  0  0  0  0  0  0  0
  2  1  1  1
  2  3  1  0
  3  4  1  0
  4  5  2  0
  5  6  1  0
  6  7  2  0
  7  8  1  0
  8  9  2  0
  9 10  1  0
 10 11  1  0
  2 12  1  0
 12 13  1  0
 13 14  1  0
 14 15  2  0
 15 16  1  0
 16 17  2  0
 17 18  1  0
 17 19  1  0
 19 20  1  0
 20 21  2  0
 21 22  1  0
 22 23  1  0
 22 24  1  0
 14 25  1  0
 25 26  2  0
 11  3  2  0
 10  6  1  0
 26 12  1  0
 18 13  2  0
 23 19  2  0
M  END
>  <BrandName>  (275) 


>  <Applicants>  (275) 
Astrazeneca

>  <CHEMBL_ID>  (275) 
CHEMBL3334567

>  <Canonical_Smiles>  (275) 
C[C@@H](c1ccc2nccn2c1)n3c4c(ncc(n4)c5cnn(c5)C)nn3

>  <Chirality>  (275) 
Single Stereoisomer

>  <First_Approval>  (275) 
nan

>  <Phase>  (275) 
3.0

>  <SC_Patent>  (275) 
nan

>  <Synonyms>  (275) 
AZD-6094 | AZD6094 | HMPL-504 | SAVOLITINIB | VOLITINIB

>  <Withdrawn>  (275) 
{''}

>  <Indications>  (275) 
nan

>  <Type>  (275) 
nan

>  <targets_id>  (275) 
P08581

>  <Inchi>  (275) 
InChI=1S/C17H15N9/c1-11(12-3-4-15-18-5-6-25(15)10-12)26-17-16(22-23-26)19-8-14(21-17)13-7-20-24(2)9-13/h3-11H,1-2H3/t11-/m0/s1

>  <stdInchikey>  (275) 
XYDNMOZJKOGZLS-NSHDSACASA-N

>  <csid>  (275) 
34501055

>  <Links>  (275) 
|http://www.chemspider.com/Chemical-Structure.34501055.html|https://www.ebi.ac.uk/chembldb/compound/inspect/CHEMBL3334567|https://pubchem.ncbi.nlm.nih.gov/compound/68289010|https://go.drugbank.com/drugs/DB12048|https://www.rcsb.org/ligand/V0L|https://www.ebi.ac.uk/pdbe-srv/pdbechem/chemicalCompound/show/V0L|https://www.guidetopharmacology.org/GRAC/LigandDisplayForward?9918|https://zinc15.docking.org/substances/ZINC000149738712|https://precision.fda.gov/uniisearch/srs/unii/2A2DA6857R|https://www.bindingdb.org/bind/chemsearch/marvin/MolStructure.jsp?monomerid=50023342

>  <LinkName>  (275) 
|ChemSpider|ChEMBL|PubChem|DrugBank|RCSB|PDBe|Guide to Pharmacology|ZINC|FDA SRS|BindingDB

>  <lig_pdb_ID>  (275) 
V0L

>  <pdb_IDs>  (275) 
5lbw 6sde

>  <indicationDB>  (275) 


>  <uniprotId>  (275) 


>  <indicationG2P>  (275) 
None

>  <MW>  (275) 
345.1

>  <HBA>  (275) 
9

>  <HBD>  (275) 
0

>  <NRB>  (275) 
3

>  <TPSA>  (275) 
91.6

>  <LogP>  (275) 
1.9

>  <RoF>  (275) 
0

>  <Melting point>  (275) 
nan

>  <Targets>  (275) 
MET

>  <Kinase families>  (275) 
Tyr

>  <FDA_approved>  (275) 


$$$$
Delgocitinib
     RDKit          2D

 23 26  0  0  0  0  0  0  0  0999 V2000
    0.8311    3.8127    0.0000 C   0  0  0  0  0  0  0  0  0  0  0  0
    1.6825    2.5777    0.0000 C   0  0  0  0  0  0  0  0  0  0  0  0
    3.1578    2.3065    0.0000 C   0  0  0  0  0  0  0  0  0  0  0  0
    2.8866    0.8313    0.0000 N   0  0  0  0  0  0  0  0  0  0  0  0
    1.4113    1.1025    0.0000 C   0  0  0  0  0  0  0  0  0  0  0  0
    1.3743   -0.3971    0.0000 C   0  0  0  0  0  0  0  0  0  0  0  0
   -0.0633   -0.8252    0.0000 C   0  0  0  0  0  0  0  0  0  0  0  0
   -0.9148    0.4097    0.0000 N   0  0  0  0  0  0  0  0  0  0  0  0
   -0.0034    1.6011    0.0000 C   0  0  0  0  0  0  0  0  0  0  0  0
   -2.4143    0.4468    0.0000 C   0  0  0  0  0  0  0  0  0  0  0  0
   -3.1962   -0.8333    0.0000 C   0  0  0  0  0  0  0  0  0  0  0  0
   -2.7681   -2.2709    0.0000 C   0  0  0  0  0  0  0  0  0  0  0  0
   -4.0030   -3.1223    0.0000 C   0  0  0  0  0  0  0  0  0  0  0  0
   -5.1944   -2.2109    0.0000 N   0  0  0  0  0  0  0  0  0  0  0  0
   -4.6957   -0.7962    0.0000 C   0  0  0  0  0  0  0  0  0  0  0  0
   -5.4134    0.5210    0.0000 N   0  0  0  0  0  0  0  0  0  0  0  0
   -4.6315    1.8011    0.0000 C   0  0  0  0  0  0  0  0  0  0  0  0
   -3.1320    1.7640    0.0000 N   0  0  0  0  0  0  0  0  0  0  0  0
    3.7380   -0.4037    0.0000 C   0  0  0  0  0  0  0  0  0  0  0  0
    3.0942   -1.7585    0.0000 O   0  0  0  0  0  0  0  0  0  0  0  0
    5.2332   -0.2838    0.0000 C   0  0  0  0  0  0  0  0  0  0  0  0
    6.0846   -1.5188    0.0000 C   0  0  0  0  0  0  0  0  0  0  0  0
    6.9361   -2.7537    0.0000 N   0  0  0  0  0  0  0  0  0  0  0  0
  1  2  1  0
  2  3  1  0
  3  4  1  0
  4  5  1  0
  5  6  1  0
  6  7  1  0
  7  8  1  0
  8  9  1  0
  8 10  1  0
 10 11  2  0
 11 12  1  0
 12 13  2  0
 13 14  1  0
 14 15  1  0
 15 16  2  0
 16 17  1  0
 17 18  2  0
  4 19  1  0
 19 20  2  0
 19 21  1  0
 21 22  1  0
 22 23  3  0
  5  2  1  0
  9  5  1  0
 18 10  1  0
 15 11  1  0
M  END
>  <BrandName>  (276) 


>  <Applicants>  (276) 
Japan Tobacco

>  <CHEMBL_ID>  (276) 
CHEMBL4297507

>  <Canonical_Smiles>  (276) 
CC1CN(C12CCN(C2)c3c4cc[nH]c4ncn3)C(=O)CC#N

>  <Chirality>  (276) 
Single Stereoisomer

>  <First_Approval>  (276) 
nan

>  <Phase>  (276) 
3.0

>  <SC_Patent>  (276) 
nan

>  <Synonyms>  (276) 
|LEO 124249|JTE-052A|LEO-124249A|LEO-124249|JTE-052|LEO 124249A

>  <Withdrawn>  (276) 
nan

>  <Indications>  (276) 
nan

>  <Type>  (276) 
nan

>  <targets_id>  (276) 
nan

>  <Inchi>  (276) 
InChI=1S/C16H18N6O/c1-11-8-22(13(23)2-5-17)16(11)4-7-21(9-16)15-12-3-6-18-14(12)19-10-20-15/h3,6,10-11H,2,4,7-9H2,1H3,(H,18,19,20)/t11-,16-/m0/s1

>  <stdInchikey>  (276) 
LOWWYYZBZNSPDT-UHFFFAOYSA-N

>  <csid>  (276) 
34960249

>  <Links>  (276) 
|http://www.chemspider.com/Chemical-Structure.34960249.html|https://www.ebi.ac.uk/chembldb/compound/inspect/CHEMBL3689518|https://pubchem.ncbi.nlm.nih.gov/compound/50913622|https://www.bindingdb.org/bind/chemsearch/marvin/MolStructure.jsp?monomerid=109868

>  <LinkName>  (276) 
|ChemSpider|ChEMBL|PubChem|BindingDB

>  <lig_pdb_ID>  (276) 


>  <pdb_IDs>  (276) 


>  <indicationDB>  (276) 


>  <uniprotId>  (276) 


>  <indicationG2P>  (276) 


>  <MW>  (276) 
310.2

>  <HBA>  (276) 
5

>  <HBD>  (276) 
1

>  <NRB>  (276) 
2

>  <TPSA>  (276) 
88.9

>  <LogP>  (276) 
1.3

>  <RoF>  (276) 
0

>  <Melting point>  (276) 
nan

>  <Targets>  (276) 
nan

>  <Kinase families>  (276) 


>  <FDA_approved>  (276) 


$$$$
Naquotinib
     RDKit          2D

 41 45  0  0  0  0  0  0  0  0999 V2000
    7.0504   -3.4850    0.0000 C   0  0  0  0  0  0  0  0  0  0  0  0
    7.5353   -2.0656    0.0000 C   0  0  0  0  0  0  0  0  0  0  0  0
    6.5484   -0.9359    0.0000 C   0  0  0  0  0  0  0  0  0  0  0  0
    5.0767   -1.2257    0.0000 C   0  0  0  0  0  0  0  0  0  0  0  0
    4.0899   -0.0960    0.0000 N   0  0  0  0  0  0  0  0  0  0  0  0
    4.5748    1.3234    0.0000 C   0  0  0  0  0  0  0  0  0  0  0  0
    6.0465    1.6132    0.0000 C   0  0  0  0  0  0  0  0  0  0  0  0
    7.0333    0.4835    0.0000 N   0  0  0  0  0  0  0  0  0  0  0  0
    6.5314    3.0327    0.0000 C   0  0  0  0  0  0  0  0  0  0  0  0
    5.5446    4.1623    0.0000 O   0  0  0  0  0  0  0  0  0  0  0  0
    8.0031    3.3225    0.0000 N   0  0  0  0  0  0  0  0  0  0  0  0
    3.5879    2.4531    0.0000 N   0  0  0  0  0  0  0  0  0  0  0  0
    2.1162    2.1633    0.0000 C   0  0  0  0  0  0  0  0  0  0  0  0
    1.1293    3.2930    0.0000 C   0  0  0  0  0  0  0  0  0  0  0  0
   -0.3424    3.0032    0.0000 C   0  0  0  0  0  0  0  0  0  0  0  0
   -0.8273    1.5837    0.0000 C   0  0  0  0  0  0  0  0  0  0  0  0
    0.1595    0.4541    0.0000 C   0  0  0  0  0  0  0  0  0  0  0  0
    1.6313    0.7438    0.0000 C   0  0  0  0  0  0  0  0  0  0  0  0
   -2.2990    1.2939    0.0000 N   0  0  0  0  0  0  0  0  0  0  0  0
   -3.2859    2.4236    0.0000 C   0  0  0  0  0  0  0  0  0  0  0  0
   -4.7576    2.1338    0.0000 C   0  0  0  0  0  0  0  0  0  0  0  0
   -5.2425    0.7144    0.0000 C   0  0  0  0  0  0  0  0  0  0  0  0
   -4.2557   -0.4153    0.0000 C   0  0  0  0  0  0  0  0  0  0  0  0
   -2.7839   -0.1255    0.0000 C   0  0  0  0  0  0  0  0  0  0  0  0
   -6.7143    0.4246    0.0000 N   0  0  0  0  0  0  0  0  0  0  0  0
   -7.7011    1.5542    0.0000 C   0  0  0  0  0  0  0  0  0  0  0  0
   -9.1728    1.2644    0.0000 C   0  0  0  0  0  0  0  0  0  0  0  0
   -9.6577   -0.1550    0.0000 N   0  0  0  0  0  0  0  0  0  0  0  0
   -8.6709   -1.2847    0.0000 C   0  0  0  0  0  0  0  0  0  0  0  0
   -7.1992   -0.9949    0.0000 C   0  0  0  0  0  0  0  0  0  0  0  0
  -11.1295   -0.4448    0.0000 C   0  0  0  0  0  0  0  0  0  0  0  0
    4.5918   -2.6452    0.0000 O   0  0  0  0  0  0  0  0  0  0  0  0
    3.1200   -2.9350    0.0000 C   0  0  0  0  0  0  0  0  0  0  0  0
    2.4894   -4.2960    0.0000 C   0  0  0  0  0  0  0  0  0  0  0  0
    1.0002   -4.1168    0.0000 C   0  0  0  0  0  0  0  0  0  0  0  0
    0.7104   -2.6450    0.0000 N   0  0  0  0  0  0  0  0  0  0  0  0
    2.0205   -1.9146    0.0000 C   0  0  0  0  0  0  0  0  0  0  0  0
   -0.6506   -2.0144    0.0000 C   0  0  0  0  0  0  0  0  0  0  0  0
   -0.7850   -0.5204    0.0000 O   0  0  0  0  0  0  0  0  0  0  0  0
   -1.8773   -2.8778    0.0000 C   0  0  0  0  0  0  0  0  0  0  0  0
   -3.2383   -2.2471    0.0000 C   0  0  0  0  0  0  0  0  0  0  0  0
  1  2  1  0
  2  3  1  0
  3  4  2  0
  4  5  1  0
  5  6  2  0
  6  7  1  0
  7  8  2  0
  7  9  1  0
  9 10  2  0
  9 11  1  0
  6 12  1  0
 12 13  1  0
 13 14  2  0
 14 15  1  0
 15 16  2  0
 16 17  1  0
 17 18  2  0
 16 19  1  0
 19 20  1  0
 20 21  1  0
 21 22  1  0
 22 23  1  0
 23 24  1  0
 22 25  1  0
 25 26  1  0
 26 27  1  0
 27 28  1  0
 28 29  1  0
 29 30  1  0
 28 31  1  0
  4 32  1  0
 33 32  1  6
 33 34  1  0
 34 35  1  0
 35 36  1  0
 36 37  1  0
 36 38  1  0
 38 39  2  0
 38 40  1  0
 40 41  2  0
  8  3  1  0
 18 13  1  0
 24 19  1  0
 30 25  1  0
 37 33  1  0
M  END
>  <BrandName>  (277) 


>  <Applicants>  (277) 
Astellas Pharma

>  <CHEMBL_ID>  (277) 
CHEMBL3663929

>  <Canonical_Smiles>  (277) 
CCc1c(nc(c(n1)C(=O)N)Nc2ccc(cc2)N3CCC(CC3)N4CCN(CC4)C)O[C@@H]5CCN(C5)C(=O)C=C

>  <Chirality>  (277) 
Single Stereoisomer

>  <First_Approval>  (277) 
nan

>  <Phase>  (277) 
3.0

>  <SC_Patent>  (277) 
nan

>  <Synonyms>  (277) 
ASP-8273 | ASP8273 | NAQUOTINIB

>  <Withdrawn>  (277) 
{'', 'Study NCT02674555 in unknown country was Withdrawn during PHASE1 because Following recommendation by SOLAR Study IDMC, Astellas closed enrollment in ASP8273 studies'}

>  <Indications>  (277) 
nan

>  <Type>  (277) 
nan

>  <targets_id>  (277) 
P00533

>  <Inchi>  (277) 
InChI=1S/C30H42N8O3/c1-4-25-30(41-24-12-15-38(20-24)26(39)5-2)34-29(27(33-25)28(31)40)32-21-6-8-22(9-7-21)36-13-10-23(11-14-36)37-18-16-35(3)17-19-37/h5-9,23-24H,2,4,10-20H2,1,3H3,(H2,31,40)(H,32,34)/t24-/m1/s1

>  <stdInchikey>  (277) 
QKDCLUARMDUUKN-XMMPIXPASA-N

>  <csid>  (277) 
44210447

>  <Links>  (277) 
|http://www.chemspider.com/Chemical-Structure.44210447.html|https://www.ebi.ac.uk/chembldb/compound/inspect/CHEMBL3663929|https://pubchem.ncbi.nlm.nih.gov/compound/71667668|https://go.drugbank.com/drugs/DB12036|https://www.rcsb.org/ligand/8RC|https://www.ebi.ac.uk/pdbe-srv/pdbechem/chemicalCompound/show/8RC|https://www.guidetopharmacology.org/GRAC/LigandDisplayForward?9248|https://zinc15.docking.org/substances/ZINC000205341959|https://precision.fda.gov/uniisearch/srs/unii/47DD4548PB|https://www.bindingdb.org/bind/chemsearch/marvin/MolStructure.jsp?monomerid=170514

>  <LinkName>  (277) 
|ChemSpider|ChEMBL|PubChem|DrugBank|RCSB|PDBe|Guide to Pharmacology|ZINC|FDA SRS|BindingDB

>  <lig_pdb_ID>  (277) 
8RC

>  <pdb_IDs>  (277) 
5y9t 7lg8

>  <indicationDB>  (277) 


>  <uniprotId>  (277) 


>  <indicationG2P>  (277) 
None

>  <MW>  (277) 
562.3

>  <HBA>  (277) 
9

>  <HBD>  (277) 
2

>  <NRB>  (277) 
9

>  <TPSA>  (277) 
120.2

>  <LogP>  (277) 
2.3

>  <RoF>  (277) 
1

>  <Melting point>  (277) 
nan

>  <Targets>  (277) 
EGFR

>  <Kinase families>  (277) 
Tyr

>  <FDA_approved>  (277) 


$$$$
Nazartinib
     RDKit          2D

 35 38  0  0  0  0  0  0  0  0999 V2000
   -9.5074    1.4920    0.0000 C   0  0  0  0  0  0  0  0  0  0  0  0
   -8.0290    1.7457    0.0000 C   0  0  0  0  0  0  0  0  0  0  0  0
   -7.0701    0.5922    0.0000 C   0  0  0  0  0  0  0  0  0  0  0  0
   -5.5917    0.8458    0.0000 C   0  0  0  0  0  0  0  0  0  0  0  0
   -5.0722    2.2530    0.0000 C   0  0  0  0  0  0  0  0  0  0  0  0
   -6.0311    3.4065    0.0000 C   0  0  0  0  0  0  0  0  0  0  0  0
   -7.5095    3.1528    0.0000 N   0  0  0  0  0  0  0  0  0  0  0  0
   -4.6329   -0.3077    0.0000 C   0  0  0  0  0  0  0  0  0  0  0  0
   -5.1524   -1.7148    0.0000 O   0  0  0  0  0  0  0  0  0  0  0  0
   -3.1545   -0.0540    0.0000 N   0  0  0  0  0  0  0  0  0  0  0  0
   -2.1956   -1.2076    0.0000 C   0  0  0  0  0  0  0  0  0  0  0  0
   -2.5652   -2.6613    0.0000 N   0  0  0  0  0  0  0  0  0  0  0  0
   -1.2968   -3.4621    0.0000 C   0  0  0  0  0  0  0  0  0  0  0  0
   -1.0432   -4.9405    0.0000 C   0  0  0  0  0  0  0  0  0  0  0  0
    0.3640   -5.4600    0.0000 C   0  0  0  0  0  0  0  0  0  0  0  0
    1.5175   -4.5011    0.0000 C   0  0  0  0  0  0  0  0  0  0  0  0
    1.2638   -3.0227    0.0000 C   0  0  0  0  0  0  0  0  0  0  0  0
   -0.1433   -2.5032    0.0000 C   0  0  0  0  0  0  0  0  0  0  0  0
   -0.6988   -1.1098    0.0000 N   0  0  0  0  0  0  0  0  0  0  0  0
    0.1020    0.1586    0.0000 C   0  0  0  0  0  0  0  0  0  0  0  0
   -0.6934    1.4303    0.0000 C   0  0  0  0  0  0  0  0  0  0  0  0
   -0.1950    2.8451    0.0000 C   0  0  0  0  0  0  0  0  0  0  0  0
    1.2219    3.3375    0.0000 C   0  0  0  0  0  0  0  0  0  0  0  0
    2.4903    2.5368    0.0000 C   0  0  0  0  0  0  0  0  0  0  0  0
    2.6551    1.0458    0.0000 N   0  0  0  0  0  0  0  0  0  0  0  0
    1.5922   -0.0126    0.0000 C   0  0  0  0  0  0  0  0  0  0  0  0
    4.0698    0.5474    0.0000 C   0  0  0  0  0  0  0  0  0  0  0  0
    4.3456   -0.9270    0.0000 O   0  0  0  0  0  0  0  0  0  0  0  0
    5.2089    1.5234    0.0000 C   0  0  0  0  0  0  0  0  0  0  0  0
    6.6237    1.0250    0.0000 C   0  0  0  0  0  0  0  0  0  0  0  0
    7.7627    2.0010    0.0000 C   0  0  0  0  0  0  0  0  0  0  0  0
    9.1775    1.5026    0.0000 N   0  0  0  0  0  0  0  0  0  0  0  0
   10.3165    2.4786    0.0000 C   0  0  0  0  0  0  0  0  0  0  0  0
    9.4532    0.0281    0.0000 C   0  0  0  0  0  0  0  0  0  0  0  0
    2.4174   -2.0639    0.0000 Cl  0  0  0  0  0  0  0  0  0  0  0  0
  1  2  1  0
  2  3  2  0
  3  4  1  0
  4  5  2  0
  5  6  1  0
  6  7  2  0
  4  8  1  0
  8  9  2  0
  8 10  1  0
 10 11  1  0
 11 12  2  0
 12 13  1  0
 13 14  2  0
 14 15  1  0
 15 16  2  0
 16 17  1  0
 17 18  2  0
 18 19  1  0
 20 19  1  6
 20 21  1  0
 21 22  1  0
 22 23  1  0
 23 24  1  0
 24 25  1  0
 25 26  1  0
 25 27  1  0
 27 28  2  0
 27 29  1  0
 29 30  2  0
 30 31  1  0
 31 32  1  0
 32 33  1  0
 32 34  1  0
 17 35  1  0
  7  2  1  0
 19 11  1  0
 18 13  1  0
 26 20  1  0
M  END
>  <BrandName>  (278) 


>  <Applicants>  (278) 
Novartis

>  <CHEMBL_ID>  (278) 
CHEMBL3787344

>  <Canonical_Smiles>  (278) 
Cc1cc(ccn1)C(=O)Nc2nc3cccc(c3n2[C@@H]4CCCCN(C4)C(=O)/C=C/CN(C)C)Cl

>  <Chirality>  (278) 
Single Stereoisomer

>  <First_Approval>  (278) 
nan

>  <Phase>  (278) 
3.0

>  <SC_Patent>  (278) 
nan

>  <Synonyms>  (278) 
EGF-816 | EGF816 | NAZARTINIB | NVP-EGF816-NX

>  <Withdrawn>  (278) 
{'', 'Study NCT03529084 in unknown country was Withdrawn during PHASE3 because Decision by Sponsor not to continue with the trial'}

>  <Indications>  (278) 
nan

>  <Type>  (278) 
nan

>  <targets_id>  (278) 
nan

>  <Inchi>  (278) 
InChI=1S/C26H31ClN6O2/c1-18-16-19(12-13-28-18)25(35)30-26-29-22-10-6-9-21(27)24(22)33(26)20-8-4-5-15-32(17-20)23(34)11-7-14-31(2)3/h6-7,9-13,16,20H,4-5,8,14-15,17H2,1-3H3,(H,29,30,35)/b11-7+/t20-/m1/s1

>  <stdInchikey>  (278) 
IOMMMLWIABWRKL-WUTDNEBXSA-N

>  <csid>  (278) 
35308229

>  <Links>  (278) 
|http://www.chemspider.com/Chemical-Structure.35308229.html|https://www.ebi.ac.uk/chembldb/compound/inspect/CHEMBL3787344|https://pubchem.ncbi.nlm.nih.gov/compound/72703790|https://go.drugbank.com/drugs/DB16250|https://www.guidetopharmacology.org/GRAC/LigandDisplayForward?9204|https://zinc15.docking.org/substances/ZINC000210610738|https://precision.fda.gov/uniisearch/srs/unii/KE7K32EME8|https://www.bindingdb.org/bind/chemsearch/marvin/MolStructure.jsp?monomerid=50160870

>  <LinkName>  (278) 
|ChemSpider|ChEMBL|PubChem|DrugBank|Guide to Pharmacology|ZINC|FDA SRS|BindingDB

>  <lig_pdb_ID>  (278) 


>  <pdb_IDs>  (278) 


>  <indicationDB>  (278) 


>  <uniprotId>  (278) 


>  <indicationG2P>  (278) 
None

>  <MW>  (278) 
494.2

>  <HBA>  (278) 
6

>  <HBD>  (278) 
1

>  <NRB>  (278) 
6

>  <TPSA>  (278) 
83.4

>  <LogP>  (278) 
4.3

>  <RoF>  (278) 
0

>  <Melting point>  (278) 
nan

>  <Targets>  (278) 
nan

>  <Kinase families>  (278) 


>  <FDA_approved>  (278) 


$$$$
Nemtabrutinib
     RDKit          2D

 34 38  0  0  0  0  0  0  0  0999 V2000
   -9.1440    0.5315    0.0000 C   0  0  0  0  0  0  0  0  0  0  0  0
   -7.7415    1.0634    0.0000 C   0  0  0  0  0  0  0  0  0  0  0  0
   -6.5796    0.1147    0.0000 C   0  0  0  0  0  0  0  0  0  0  0  0
   -6.8203   -1.3659    0.0000 C   0  0  0  0  0  0  0  0  0  0  0  0
   -8.2228   -1.8978    0.0000 C   0  0  0  0  0  0  0  0  0  0  0  0
   -9.3847   -0.9491    0.0000 C   0  0  0  0  0  0  0  0  0  0  0  0
   -5.6584   -2.3146    0.0000 O   0  0  0  0  0  0  0  0  0  0  0  0
   -4.2558   -1.7827    0.0000 C   0  0  0  0  0  0  0  0  0  0  0  0
   -3.0940   -2.7314    0.0000 C   0  0  0  0  0  0  0  0  0  0  0  0
   -1.6914   -2.1996    0.0000 C   0  0  0  0  0  0  0  0  0  0  0  0
   -1.4508   -0.7190    0.0000 C   0  0  0  0  0  0  0  0  0  0  0  0
   -2.6126    0.2297    0.0000 C   0  0  0  0  0  0  0  0  0  0  0  0
   -4.0152   -0.3022    0.0000 C   0  0  0  0  0  0  0  0  0  0  0  0
   -2.3720    1.7103    0.0000 Cl  0  0  0  0  0  0  0  0  0  0  0  0
   -0.0482   -0.1871    0.0000 C   0  0  0  0  0  0  0  0  0  0  0  0
    1.1137   -1.1358    0.0000 O   0  0  0  0  0  0  0  0  0  0  0  0
    0.1924    1.2934    0.0000 C   0  0  0  0  0  0  0  0  0  0  0  0
   -0.8639    2.3584    0.0000 C   0  0  0  0  0  0  0  0  0  0  0  0
   -0.1775    3.6921    0.0000 N   0  0  0  0  0  0  0  0  0  0  0  0
    1.3031    3.4515    0.0000 C   0  0  0  0  0  0  0  0  0  0  0  0
    1.5317    1.9690    0.0000 C   0  0  0  0  0  0  0  0  0  0  0  0
    2.9299    1.4258    0.0000 C   0  0  0  0  0  0  0  0  0  0  0  0
    4.0994    2.3650    0.0000 N   0  0  0  0  0  0  0  0  0  0  0  0
    3.8708    3.8475    0.0000 C   0  0  0  0  0  0  0  0  0  0  0  0
    2.4726    4.3907    0.0000 N   0  0  0  0  0  0  0  0  0  0  0  0
    3.1585   -0.0567    0.0000 N   0  0  0  0  0  0  0  0  0  0  0  0
    4.5567   -0.6000    0.0000 C   0  0  0  0  0  0  0  0  0  0  0  0
    4.7853   -2.0824    0.0000 C   0  0  0  0  0  0  0  0  0  0  0  0
    6.1835   -2.6257    0.0000 C   0  0  0  0  0  0  0  0  0  0  0  0
    7.3531   -1.6864    0.0000 C   0  0  0  0  0  0  0  0  0  0  0  0
    7.1244   -0.2039    0.0000 O   0  0  0  0  0  0  0  0  0  0  0  0
    5.7262    0.3393    0.0000 C   0  0  0  0  0  0  0  0  0  0  0  0
    8.7512   -2.2296    0.0000 C   0  0  0  0  0  0  0  0  0  0  0  0
    8.9799   -3.7121    0.0000 O   0  0  0  0  0  0  0  0  0  0  0  0
  1  2  2  0
  2  3  1  0
  3  4  2  0
  4  5  1  0
  5  6  2  0
  4  7  1  0
  7  8  1  0
  8  9  2  0
  9 10  1  0
 10 11  2  0
 11 12  1  0
 12 13  2  0
 12 14  1  0
 11 15  1  0
 15 16  2  0
 15 17  1  0
 17 18  2  0
 18 19  1  0
 19 20  1  0
 20 21  2  0
 21 22  1  0
 22 23  2  0
 23 24  1  0
 24 25  2  0
 22 26  1  0
 27 26  1  1
 27 28  1  0
 28 29  1  0
 29 30  1  0
 30 31  1  0
 31 32  1  0
 30 33  1  6
 33 34  1  0
  6  1  1  0
 13  8  1  0
 21 17  1  0
 25 20  1  0
 32 27  1  0
M  END
>  <BrandName>  (279) 


>  <Applicants>  (279) 
Merck

>  <CHEMBL_ID>  (279) 
CHEMBL4756476

>  <Canonical_Smiles>  (279) 
c1ccc(cc1)Oc2ccc(c(c2)Cl)C(=O)c3c[nH]c4c3c(ncn4)N[C@@H]5CC[C@H](OC5)CO

>  <Chirality>  (279) 
Single Stereoisomer

>  <First_Approval>  (279) 
nan

>  <Phase>  (279) 
3.0

>  <SC_Patent>  (279) 
nan

>  <Synonyms>  (279) 
ARQ-531 | MK-1026 | NEMTABRUTINIB

>  <Withdrawn>  (279) 
{''}

>  <Indications>  (279) 
nan

>  <Type>  (279) 
nan

>  <targets_id>  (279) 
nan

>  <Inchi>  (279) 
InChI=1S/C25H23ClN4O4/c26-21-10-17(34-16-4-2-1-3-5-16)8-9-19(21)23(32)20-11-27-24-22(20)25(29-14-28-24)30-15-6-7-18(12-31)33-13-15/h1-5,8-11,14-15,18,31H,6-7,12-13H2,(H2,27,28,29,30)/t15-,18+/m1/s1

>  <stdInchikey>  (279) 
JSFCZQSJQXFJDS-QAPCUYQASA-N

>  <csid>  (279) 
64854483

>  <Links>  (279) 
|http://www.chemspider.com/Chemical-Structure.64854483.html|https://www.ebi.ac.uk/chembldb/compound/inspect/CHEMBL4756476|https://pubchem.ncbi.nlm.nih.gov/compound/129045720|https://www.rcsb.org/ligand/HRA|https://www.ebi.ac.uk/pdbe-srv/pdbechem/chemicalCompound/show/HRA|https://precision.fda.gov/uniisearch/srs/unii/JTZ51LIXN4

>  <LinkName>  (279) 
|ChemSpider|ChEMBL|PubChem|RCSB|PDBe|FDA SRS

>  <lig_pdb_ID>  (279) 
HRA

>  <pdb_IDs>  (279) 
6e4f

>  <indicationDB>  (279) 


>  <uniprotId>  (279) 


>  <indicationG2P>  (279) 


>  <MW>  (279) 
478.1

>  <HBA>  (279) 
7

>  <HBD>  (279) 
3

>  <NRB>  (279) 
7

>  <TPSA>  (279) 
109.4

>  <LogP>  (279) 
4.6

>  <RoF>  (279) 
0

>  <Melting point>  (279) 
nan

>  <Targets>  (279) 
nan

>  <Kinase families>  (279) 


>  <FDA_approved>  (279) 


$$$$
Losmapimod
     RDKit          2D

 28 30  0  0  0  0  0  0  0  0999 V2000
    1.3558   -3.7790    0.0000 C   0  0  0  0  0  0  0  0  0  0  0  0
    2.1758   -2.5230    0.0000 C   0  0  0  0  0  0  0  0  0  0  0  0
    1.4981   -1.1849    0.0000 C   0  0  0  0  0  0  0  0  0  0  0  0
    2.3181    0.0711    0.0000 C   0  0  0  0  0  0  0  0  0  0  0  0
    3.8159   -0.0110    0.0000 C   0  0  0  0  0  0  0  0  0  0  0  0
    4.4936   -1.3492    0.0000 C   0  0  0  0  0  0  0  0  0  0  0  0
    3.6736   -2.6052    0.0000 C   0  0  0  0  0  0  0  0  0  0  0  0
    4.3513   -3.9434    0.0000 F   0  0  0  0  0  0  0  0  0  0  0  0
    4.6359    1.2450    0.0000 C   0  0  0  0  0  0  0  0  0  0  0  0
    3.9582    2.5832    0.0000 O   0  0  0  0  0  0  0  0  0  0  0  0
    6.1336    1.1628    0.0000 N   0  0  0  0  0  0  0  0  0  0  0  0
    6.9537    2.4189    0.0000 C   0  0  0  0  0  0  0  0  0  0  0  0
    7.0358    3.9166    0.0000 C   0  0  0  0  0  0  0  0  0  0  0  0
    8.2918    3.0966    0.0000 C   0  0  0  0  0  0  0  0  0  0  0  0
    0.0004   -1.1027    0.0000 C   0  0  0  0  0  0  0  0  0  0  0  0
   -0.6774    0.2355    0.0000 C   0  0  0  0  0  0  0  0  0  0  0  0
   -2.1751    0.3176    0.0000 C   0  0  0  0  0  0  0  0  0  0  0  0
   -2.9951   -0.9384    0.0000 C   0  0  0  0  0  0  0  0  0  0  0  0
   -2.3174   -2.2766    0.0000 C   0  0  0  0  0  0  0  0  0  0  0  0
   -0.8197   -2.3587    0.0000 N   0  0  0  0  0  0  0  0  0  0  0  0
   -4.4929   -0.8562    0.0000 C   0  0  0  0  0  0  0  0  0  0  0  0
   -5.3129   -2.1122    0.0000 O   0  0  0  0  0  0  0  0  0  0  0  0
   -5.1706    0.4819    0.0000 N   0  0  0  0  0  0  0  0  0  0  0  0
   -6.6684    0.5641    0.0000 C   0  0  0  0  0  0  0  0  0  0  0  0
   -7.3461    1.9023    0.0000 C   0  0  0  0  0  0  0  0  0  0  0  0
   -8.6843    1.2245    0.0000 C   0  0  0  0  0  0  0  0  0  0  0  0
   -6.0079    2.5800    0.0000 C   0  0  0  0  0  0  0  0  0  0  0  0
   -8.0238    3.2404    0.0000 C   0  0  0  0  0  0  0  0  0  0  0  0
  1  2  1  0
  2  3  2  0
  3  4  1  0
  4  5  2  0
  5  6  1  0
  6  7  2  0
  7  8  1  0
  5  9  1  0
  9 10  2  0
  9 11  1  0
 11 12  1  0
 12 13  1  0
 13 14  1  0
  3 15  1  0
 15 16  2  0
 16 17  1  0
 17 18  2  0
 18 19  1  0
 19 20  2  0
 18 21  1  0
 21 22  2  0
 21 23  1  0
 23 24  1  0
 24 25  1  0
 25 26  1  0
 25 27  1  0
 25 28  1  0
  7  2  1  0
 14 12  1  0
 20 15  1  0
M  END
>  <BrandName>  (280) 


>  <Applicants>  (280) 
GlaxoSmithKline

>  <CHEMBL_ID>  (280) 
CHEMBL1088752

>  <Canonical_Smiles>  (280) 
Cc1c(cc(cc1F)C(=O)NC2CC2)c3ccc(cn3)C(=O)NCC(C)(C)C

>  <Chirality>  (280) 
Achiral Molecule

>  <First_Approval>  (280) 
nan

>  <Phase>  (280) 
3.0

>  <SC_Patent>  (280) 
nan

>  <Synonyms>  (280) 
FTX-1821 | FTX1821 | GSK-AHAB | GSKAHAB | GW-856553 | GW-856553X | GW856553 | GW856553X | LOSMAPIMOD

>  <Withdrawn>  (280) 
{''}

>  <Indications>  (280) 
nan

>  <Type>  (280) 
nan

>  <targets_id>  (280) 
Q16539|Q15759|O15264|P53778

>  <Inchi>  (280) 
InChI=1S/C22H26FN3O2/c1-13-17(9-15(10-18(13)23)21(28)26-16-6-7-16)19-8-5-14(11-24-19)20(27)25-12-22(2,3)4/h5,8-11,16H,6-7,12H2,1-4H3,(H,25,27)(H,26,28)

>  <stdInchikey>  (280) 
KKYABQBFGDZVNQ-UHFFFAOYSA-N

>  <csid>  (280) 
9727484

>  <Links>  (280) 
|http://www.chemspider.com/Chemical-Structure.9727484.html|https://www.ebi.ac.uk/chembldb/compound/inspect/CHEMBL1088752|https://pubchem.ncbi.nlm.nih.gov/compound/11552706|https://go.drugbank.com/drugs/DB12270|https://www.guidetopharmacology.org/GRAC/LigandDisplayForward?7835|https://zinc15.docking.org/substances/ZINC000035793138|https://precision.fda.gov/uniisearch/srs/unii/F2DQF16BXE|https://www.bindingdb.org/bind/chemsearch/marvin/MolStructure.jsp?monomerid=50418610

>  <LinkName>  (280) 
|ChemSpider|ChEMBL|PubChem|DrugBank|Guide to Pharmacology|ZINC|FDA SRS|BindingDB

>  <lig_pdb_ID>  (280) 


>  <pdb_IDs>  (280) 


>  <indicationDB>  (280) 


>  <uniprotId>  (280) 


>  <indicationG2P>  (280) 
None

>  <MW>  (280) 
383.2

>  <HBA>  (280) 
3

>  <HBD>  (280) 
2

>  <NRB>  (280) 
5

>  <TPSA>  (280) 
71.1

>  <LogP>  (280) 
3.9

>  <RoF>  (280) 
0

>  <Melting point>  (280) 
nan

>  <Targets>  (280) 
MAPK14; MAPK11; MAPK13; MAPK12

>  <Kinase families>  (280) 
CMGC

>  <FDA_approved>  (280) 


$$$$
Parsaclisib
     RDKit          2D

 30 33  0  0  0  0  0  0  0  0999 V2000
    0.1849   -3.1918    0.0000 C   0  0  0  0  0  0  0  0  0  0  0  0
    0.9704   -1.9139    0.0000 C   0  0  0  0  0  0  0  0  0  0  0  0
    0.2564   -0.5948    0.0000 O   0  0  0  0  0  0  0  0  0  0  0  0
    1.0419    0.6832    0.0000 C   0  0  0  0  0  0  0  0  0  0  0  0
    0.3279    2.0023    0.0000 C   0  0  0  0  0  0  0  0  0  0  0  0
    1.1134    3.2802    0.0000 C   0  0  0  0  0  0  0  0  0  0  0  0
    2.6128    3.2390    0.0000 C   0  0  0  0  0  0  0  0  0  0  0  0
    3.3268    1.9198    0.0000 C   0  0  0  0  0  0  0  0  0  0  0  0
    2.5413    0.6419    0.0000 C   0  0  0  0  0  0  0  0  0  0  0  0
    3.2553   -0.6773    0.0000 C   0  0  0  0  0  0  0  0  0  0  0  0
    4.7422   -0.8751    0.0000 C   0  0  0  0  0  0  0  0  0  0  0  0
    5.0136   -2.3504    0.0000 C   0  0  0  0  0  0  0  0  0  0  0  0
    6.3666   -2.9979    0.0000 O   0  0  0  0  0  0  0  0  0  0  0  0
    3.6944   -3.0643    0.0000 N   0  0  0  0  0  0  0  0  0  0  0  0
    2.6077   -2.0303    0.0000 C   0  0  0  0  0  0  0  0  0  0  0  0
    4.8262    1.8785    0.0000 F   0  0  0  0  0  0  0  0  0  0  0  0
    3.3983    4.5169    0.0000 Cl  0  0  0  0  0  0  0  0  0  0  0  0
   -1.1715    2.0436    0.0000 C   0  0  0  0  0  0  0  0  0  0  0  0
   -1.8855    3.3628    0.0000 C   0  0  0  0  0  0  0  0  0  0  0  0
   -1.9570    0.7657    0.0000 N   0  0  0  0  0  0  0  0  0  0  0  0
   -3.4525    0.6500    0.0000 C   0  0  0  0  0  0  0  0  0  0  0  0
   -3.8046   -0.8080    0.0000 C   0  0  0  0  0  0  0  0  0  0  0  0
   -2.5267   -1.5935    0.0000 C   0  0  0  0  0  0  0  0  0  0  0  0
   -1.3848   -0.6209    0.0000 N   0  0  0  0  0  0  0  0  0  0  0  0
   -2.4111   -3.0890    0.0000 C   0  0  0  0  0  0  0  0  0  0  0  0
   -5.2434   -1.2321    0.0000 C   0  0  0  0  0  0  0  0  0  0  0  0
   -6.3301   -0.1981    0.0000 N   0  0  0  0  0  0  0  0  0  0  0  0
   -5.9780    1.2599    0.0000 C   0  0  0  0  0  0  0  0  0  0  0  0
   -4.5392    1.6840    0.0000 N   0  0  0  0  0  0  0  0  0  0  0  0
   -5.5956   -2.6902    0.0000 N   0  0  0  0  0  0  0  0  0  0  0  0
  1  2  1  0
  2  3  1  0
  3  4  1  0
  4  5  2  0
  5  6  1  0
  6  7  2  0
  7  8  1  0
  8  9  2  0
 10  9  1  1
 10 11  1  0
 11 12  1  0
 12 13  2  0
 12 14  1  0
 14 15  1  0
  8 16  1  0
  7 17  1  0
  5 18  1  0
 18 19  1  1
 18 20  1  0
 20 21  1  0
 21 22  2  0
 22 23  1  0
 23 24  2  0
 23 25  1  0
 22 26  1  0
 26 27  2  0
 27 28  1  0
 28 29  2  0
 26 30  1  0
  9  4  1  0
 15 10  1  0
 24 20  1  0
 29 21  1  0
M  END
>  <BrandName>  (281) 


>  <Applicants>  (281) 
Incyte Corporation

>  <CHEMBL_ID>  (281) 
CHEMBL4297615

>  <Canonical_Smiles>  (281) 
CCOc1c(cc(c(c1[C@H]2CC(=O)NC2)F)Cl)[C@H](C)n3c4c(c(n3)C)c(ncn4)N

>  <Chirality>  (281) 
Single Stereoisomer

>  <First_Approval>  (281) 
nan

>  <Phase>  (281) 
3.0

>  <SC_Patent>  (281) 
nan

>  <Synonyms>  (281) 
INCB-050465 | INCB050465 | PARSACLISIB

>  <Withdrawn>  (281) 
{''}

>  <Indications>  (281) 
Parsaclisib (INCB050465) is a PI3K&delta; inhibitor that was developed by Incyte Corporation as an antineoplastic and immunomodulatory agent, as claimed in their patent WO2014134426A1 [<a href='javascript:callRef("ReferenceDisplayForward?referenceId=36232&displayId=1", 960, 600)' title="1. Li Y-L, Yao W, Combs AP, Yue EW, Mei S, Zhu W, Glenn J Jr, Maduskuie TP, Sparks RB, Douty B, He C. (2014) USE OF PYRAZOLOPYRIMIDINE DERIVATIVES FOR THE TREATMENT OF PI3K RELATED DISORDERS. Patent no. WO2014134426A1.">1</a>]. The chemical structure is one of those claimed in patent WO2013033569A1, but it is not clear which example it is from a mixture of diastereoisomers 345-348 (although 347 and 348 had the highest inhibitory potency <i>vs</i>. PI3K&delta; and 347 was tested <i>in vivo</i> [<a href='javascript:callRef("ReferenceDisplayForward?referenceId=36233&displayId=2", 960, 600)' title="2. Li Y-L, Yao W, Combs AP, Yue EW, Mei S, Zhu W, Glenn J, Maduskuie TP Jr, Sparks RB, Douty B. (2013) Heterocyclylamines as pi3k inhibitors. Patent no. WO2013033569A1.">2</a>].

>  <Type>  (281) 
nan

>  <targets_id>  (281) 
nan

>  <Inchi>  (281) 
InChI=1S/C20H22ClFN6O2/c1-4-30-18-12(6-13(21)17(22)16(18)11-5-14(29)24-7-11)10(3)28-20-15(9(2)27-28)19(23)25-8-26-20/h6,8,10-11H,4-5,7H2,1-3H3,(H,24,29)(H2,23,25,26)/t10-,11-/m0/s1

>  <stdInchikey>  (281) 
ZQPDJCIXJHUERQ-QWRGUYRKSA-N

>  <csid>  (281) 
64835232

>  <Links>  (281) 
|http://www.chemspider.com/Chemical-Structure.64835232.html|https://www.ebi.ac.uk/chembldb/compound/inspect/CHEMBL4297615|https://pubchem.ncbi.nlm.nih.gov/compound/86677874|https://go.drugbank.com/drugs/DB14867|https://precision.fda.gov/uniisearch/srs/unii/OS7097575K|https://www.bindingdb.org/bind/chemsearch/marvin/MolStructure.jsp?monomerid=272573

>  <LinkName>  (281) 
|ChemSpider|ChEMBL|PubChem|DrugBank|FDA SRS|BindingDB

>  <lig_pdb_ID>  (281) 


>  <pdb_IDs>  (281) 


>  <indicationDB>  (281) 


>  <uniprotId>  (281) 


>  <indicationG2P>  (281) 


>  <MW>  (281) 
432.1

>  <HBA>  (281) 
7

>  <HBD>  (281) 
2

>  <NRB>  (281) 
5

>  <TPSA>  (281) 
107.9

>  <LogP>  (281) 
3.1

>  <RoF>  (281) 
0

>  <Melting point>  (281) 
nan

>  <Targets>  (281) 
nan

>  <Kinase families>  (281) 


>  <FDA_approved>  (281) 


$$$$
Dovitinib
     RDKit          2D

 29 33  0  0  0  0  0  0  0  0999 V2000
   -9.2698    1.9461    0.0000 C   0  0  0  0  0  0  0  0  0  0  0  0
   -7.9068    1.3197    0.0000 N   0  0  0  0  0  0  0  0  0  0  0  0
   -6.6829    2.1869    0.0000 C   0  0  0  0  0  0  0  0  0  0  0  0
   -5.3199    1.5605    0.0000 C   0  0  0  0  0  0  0  0  0  0  0  0
   -5.1809    0.0669    0.0000 N   0  0  0  0  0  0  0  0  0  0  0  0
   -6.4048   -0.8002    0.0000 C   0  0  0  0  0  0  0  0  0  0  0  0
   -7.7678   -0.1738    0.0000 C   0  0  0  0  0  0  0  0  0  0  0  0
   -3.8180   -0.5594    0.0000 C   0  0  0  0  0  0  0  0  0  0  0  0
   -3.6789   -2.0530    0.0000 C   0  0  0  0  0  0  0  0  0  0  0  0
   -2.3160   -2.6794    0.0000 C   0  0  0  0  0  0  0  0  0  0  0  0
   -1.0920   -1.8122    0.0000 C   0  0  0  0  0  0  0  0  0  0  0  0
   -1.2311   -0.3186    0.0000 C   0  0  0  0  0  0  0  0  0  0  0  0
   -2.5940    0.3077    0.0000 C   0  0  0  0  0  0  0  0  0  0  0  0
    0.1464    0.2751    0.0000 N   0  0  0  0  0  0  0  0  0  0  0  0
    1.1368   -0.8515    0.0000 C   0  0  0  0  0  0  0  0  0  0  0  0
    0.3714   -2.1415    0.0000 N   0  0  0  0  0  0  0  0  0  0  0  0
    2.6303   -0.7125    0.0000 C   0  0  0  0  0  0  0  0  0  0  0  0
    3.2567    0.6505    0.0000 C   0  0  0  0  0  0  0  0  0  0  0  0
    4.7502    0.7895    0.0000 C   0  0  0  0  0  0  0  0  0  0  0  0
    5.6174   -0.4344    0.0000 C   0  0  0  0  0  0  0  0  0  0  0  0
    7.1110   -0.2954    0.0000 C   0  0  0  0  0  0  0  0  0  0  0  0
    7.7373    1.0675    0.0000 C   0  0  0  0  0  0  0  0  0  0  0  0
    6.8702    2.2915    0.0000 C   0  0  0  0  0  0  0  0  0  0  0  0
    5.3766    2.1525    0.0000 C   0  0  0  0  0  0  0  0  0  0  0  0
    4.5095    3.3764    0.0000 F   0  0  0  0  0  0  0  0  0  0  0  0
    4.9910   -1.7974    0.0000 N   0  0  0  0  0  0  0  0  0  0  0  0
    3.4975   -1.9364    0.0000 C   0  0  0  0  0  0  0  0  0  0  0  0
    2.8711   -3.2994    0.0000 O   0  0  0  0  0  0  0  0  0  0  0  0
    2.3895    1.8744    0.0000 N   0  0  0  0  0  0  0  0  0  0  0  0
  1  2  1  0
  2  3  1  0
  3  4  1  0
  4  5  1  0
  5  6  1  0
  6  7  1  0
  5  8  1  0
  8  9  2  0
  9 10  1  0
 10 11  2  0
 11 12  1  0
 12 13  2  0
 12 14  1  0
 14 15  1  0
 15 16  2  0
 15 17  1  0
 17 18  2  0
 18 19  1  0
 19 20  2  0
 20 21  1  0
 21 22  2  0
 22 23  1  0
 23 24  2  0
 24 25  1  0
 20 26  1  0
 26 27  1  0
 27 28  2  0
 18 29  1  0
  7  2  1  0
 13  8  1  0
 16 11  1  0
 27 17  1  0
 24 19  1  0
M  END
>  <BrandName>  (282) 


>  <Applicants>  (282) 
Novartis

>  <CHEMBL_ID>  (282) 
CHEMBL522892

>  <Canonical_Smiles>  (282) 
CN1CCN(CC1)c2ccc3c(c2)[nH]c(n3)c4c(c5c(cccc5F)[nH]c4=O)N

>  <Chirality>  (282) 
Achiral Molecule

>  <First_Approval>  (282) 
nan

>  <Phase>  (282) 
3.0

>  <SC_Patent>  (282) 
nan

>  <Synonyms>  (282) 
CHIR-258 | DOVITINIB | GFKI-258 | NVP-TKI258 | TKI-258

>  <Withdrawn>  (282) 
{'', 'Study NCT02048943 in United States was Withdrawn during PHASE1 because Lack of funding', 'Study NCT02065323 in United States was Withdrawn during PHASE2 because Terminated due to budgetary considerations and length of development', 'Study NCT02268435 in unknown country was Withdrawn during PHASE1 because Dovitinib Production stopped'}

>  <Indications>  (282) 
nan

>  <Type>  (282) 
1

>  <targets_id>  (282) 
P22607|P15692|P11362|P16234|P10721|P07333

>  <Inchi>  (282) 
InChI=1S/C21H21FN6O/c1-27-7-9-28(10-8-27)12-5-6-14-16(11-12)25-20(24-14)18-19(23)17-13(22)3-2-4-15(17)26-21(18)29/h2-6,11H,7-10H2,1H3,(H,24,25)(H3,23,26,29)

>  <stdInchikey>  (282) 
PIQCTGMSNWUMAF-UHFFFAOYSA-N

>  <csid>  (282) 
11530944

>  <Links>  (282) 
|http://www.chemspider.com/Chemical-Structure.11530944.html|https://www.ebi.ac.uk/chembldb/compound/inspect/CHEMBL522892|https://pubchem.ncbi.nlm.nih.gov/compound/135398510|https://go.drugbank.com/drugs/DB05928|https://www.rcsb.org/ligand/38O|https://www.ebi.ac.uk/pdbe-srv/pdbechem/chemicalCompound/show/38O|https://zinc15.docking.org/substances/ZINC000003816310|https://precision.fda.gov/uniisearch/srs/unii/I35H55G906|https://www.bindingdb.org/bind/chemsearch/marvin/MolStructure.jsp?monomerid=25118

>  <LinkName>  (282) 
|ChemSpider|ChEMBL|PubChem|DrugBank|RCSB|PDBe|ZINC|FDA SRS|BindingDB

>  <lig_pdb_ID>  (282) 
38O

>  <pdb_IDs>  (282) 
4tyi 5a46 5am6 5am7 5owq 7akg 7qq6

>  <indicationDB>  (282) 


>  <uniprotId>  (282) 


>  <indicationG2P>  (282) 


>  <MW>  (282) 
392.2

>  <HBA>  (282) 
5

>  <HBD>  (282) 
3

>  <NRB>  (282) 
2

>  <TPSA>  (282) 
94.0

>  <LogP>  (282) 
2.5

>  <RoF>  (282) 
0

>  <Melting point>  (282) 
nan

>  <Targets>  (282) 
FGFR3; VEGFA; FGFR1; PDGFRA; KIT; CSF1R

>  <Kinase families>  (282) 
Tyr<br>(*)

>  <FDA_approved>  (282) 


$$$$
Crenolanib
     RDKit          2D

 33 38  0  0  0  0  0  0  0  0999 V2000
   -8.1628   -1.0900    0.0000 C   0  0  0  0  0  0  0  0  0  0  0  0
   -8.2575    0.4070    0.0000 C   0  0  0  0  0  0  0  0  0  0  0  0
   -8.3522    1.9040    0.0000 C   0  0  0  0  0  0  0  0  0  0  0  0
   -9.8492    1.8093    0.0000 O   0  0  0  0  0  0  0  0  0  0  0  0
   -9.7545    0.3123    0.0000 C   0  0  0  0  0  0  0  0  0  0  0  0
   -6.7605    0.5017    0.0000 C   0  0  0  0  0  0  0  0  0  0  0  0
   -5.9300   -0.7474    0.0000 O   0  0  0  0  0  0  0  0  0  0  0  0
   -4.4330   -0.6527    0.0000 C   0  0  0  0  0  0  0  0  0  0  0  0
   -3.6025   -1.9018    0.0000 C   0  0  0  0  0  0  0  0  0  0  0  0
   -2.1055   -1.8072    0.0000 C   0  0  0  0  0  0  0  0  0  0  0  0
   -1.4390   -0.4634    0.0000 C   0  0  0  0  0  0  0  0  0  0  0  0
   -2.2695    0.7857    0.0000 C   0  0  0  0  0  0  0  0  0  0  0  0
   -3.7665    0.6911    0.0000 C   0  0  0  0  0  0  0  0  0  0  0  0
   -1.3381    1.9616    0.0000 N   0  0  0  0  0  0  0  0  0  0  0  0
    0.0680    1.4392    0.0000 C   0  0  0  0  0  0  0  0  0  0  0  0
    0.0056   -0.0595    0.0000 N   0  0  0  0  0  0  0  0  0  0  0  0
    1.1815   -0.9909    0.0000 C   0  0  0  0  0  0  0  0  0  0  0  0
    0.9628   -2.4748    0.0000 C   0  0  0  0  0  0  0  0  0  0  0  0
    2.1387   -3.4062    0.0000 C   0  0  0  0  0  0  0  0  0  0  0  0
    3.5332   -2.8535    0.0000 C   0  0  0  0  0  0  0  0  0  0  0  0
    4.7090   -3.7849    0.0000 C   0  0  0  0  0  0  0  0  0  0  0  0
    6.1035   -3.2322    0.0000 C   0  0  0  0  0  0  0  0  0  0  0  0
    6.3221   -1.7482    0.0000 C   0  0  0  0  0  0  0  0  0  0  0  0
    5.1463   -0.8169    0.0000 C   0  0  0  0  0  0  0  0  0  0  0  0
    3.7518   -1.3695    0.0000 C   0  0  0  0  0  0  0  0  0  0  0  0
    2.5760   -0.4382    0.0000 N   0  0  0  0  0  0  0  0  0  0  0  0
    5.3649    0.6671    0.0000 N   0  0  0  0  0  0  0  0  0  0  0  0
    6.7594    1.2197    0.0000 C   0  0  0  0  0  0  0  0  0  0  0  0
    6.9780    2.7037    0.0000 C   0  0  0  0  0  0  0  0  0  0  0  0
    5.8022    3.6350    0.0000 C   0  0  0  0  0  0  0  0  0  0  0  0
    4.4077    3.0824    0.0000 C   0  0  0  0  0  0  0  0  0  0  0  0
    4.1891    1.5984    0.0000 C   0  0  0  0  0  0  0  0  0  0  0  0
    6.0208    5.1190    0.0000 N   0  0  0  0  0  0  0  0  0  0  0  0
  1  2  1  0
  2  3  1  0
  3  4  1  0
  4  5  1  0
  2  6  1  0
  6  7  1  0
  7  8  1  0
  8  9  2  0
  9 10  1  0
 10 11  2  0
 11 12  1  0
 12 13  2  0
 12 14  1  0
 14 15  2  0
 15 16  1  0
 16 17  1  0
 17 18  2  0
 18 19  1  0
 19 20  2  0
 20 21  1  0
 21 22  2  0
 22 23  1  0
 23 24  2  0
 24 25  1  0
 25 26  2  0
 24 27  1  0
 27 28  1  0
 28 29  1  0
 29 30  1  0
 30 31  1  0
 31 32  1  0
 30 33  1  0
  5  2  1  0
 13  8  1  0
 16 11  1  0
 26 17  1  0
 25 20  1  0
 32 27  1  0
M  END
>  <BrandName>  (283) 


>  <Applicants>  (283) 
Arog Pharmaceuticals

>  <CHEMBL_ID>  (283) 
CHEMBL2105728

>  <Canonical_Smiles>  (283) 
CC1(COC1)COc2ccc3c(c2)ncn3c4ccc5cccc(c5n4)N6CCC(CC6)N

>  <Chirality>  (283) 
Achiral Molecule

>  <First_Approval>  (283) 
nan

>  <Phase>  (283) 
3.0

>  <SC_Patent>  (283) 
nan

>  <Synonyms>  (283) 
ARO 002 | ARO-002 | CP 868596 | CP-868,596 | CP-868596 | CRENOLANIB

>  <Withdrawn>  (283) 
{''}

>  <Indications>  (283) 
nan

>  <Type>  (283) 
1

>  <targets_id>  (283) 
P36888|P16234|P09619

>  <Inchi>  (283) 
InChI=1S/C26H29N5O2/c1-26(14-32-15-26)16-33-20-6-7-22-21(13-20)28-17-31(22)24-8-5-18-3-2-4-23(25(18)29-24)30-11-9-19(27)10-12-30/h2-8,13,17,19H,9-12,14-16,27H2,1H3

>  <stdInchikey>  (283) 
DYNHJHQFHQTFTP-UHFFFAOYSA-N

>  <csid>  (283) 
8541584

>  <Links>  (283) 
|http://www.chemspider.com/Chemical-Structure.8541584.html|https://www.ebi.ac.uk/chembldb/compound/inspect/CHEMBL2105728|https://pubchem.ncbi.nlm.nih.gov/compound/10366136|https://go.drugbank.com/drugs/DB11832|https://www.rcsb.org/ligand/6T2|https://www.ebi.ac.uk/pdbe-srv/pdbechem/chemicalCompound/show/6T2|https://www.guidetopharmacology.org/GRAC/LigandDisplayForward?7882|https://zinc15.docking.org/substances/ZINC000003820043|https://precision.fda.gov/uniisearch/srs/unii/LQF7I567TQ|https://www.bindingdb.org/bind/chemsearch/marvin/MolStructure.jsp?monomerid=185149

>  <LinkName>  (283) 
|ChemSpider|ChEMBL|PubChem|DrugBank|RCSB|PDBe|Guide to Pharmacology|ZINC|FDA SRS|BindingDB

>  <lig_pdb_ID>  (283) 
6T2

>  <pdb_IDs>  (283) 
5lby 6bqp 6joi 6joj

>  <indicationDB>  (283) 


>  <uniprotId>  (283) 


>  <indicationG2P>  (283) 
None

>  <MW>  (283) 
443.2

>  <HBA>  (283) 
7

>  <HBD>  (283) 
1

>  <NRB>  (283) 
5

>  <TPSA>  (283) 
78.4

>  <LogP>  (283) 
3.9

>  <RoF>  (283) 
0

>  <Melting point>  (283) 
nan

>  <Targets>  (283) 
FLT3; PDGFRA; PDGFRB

>  <Kinase families>  (283) 
Tyr

>  <FDA_approved>  (283) 


$$$$
Bezuclastinib
     RDKit          2D

 25 28  0  0  0  0  0  0  0  0999 V2000
   -8.0450    1.9733    0.0000 C   0  0  0  0  0  0  0  0  0  0  0  0
   -6.9127    0.9894    0.0000 C   0  0  0  0  0  0  0  0  0  0  0  0
   -7.0432   -0.5049    0.0000 N   0  0  0  0  0  0  0  0  0  0  0  0
   -5.6623   -1.0907    0.0000 N   0  0  0  0  0  0  0  0  0  0  0  0
   -4.6784    0.0415    0.0000 C   0  0  0  0  0  0  0  0  0  0  0  0
   -3.1841   -0.0889    0.0000 C   0  0  0  0  0  0  0  0  0  0  0  0
   -2.3240    1.1400    0.0000 O   0  0  0  0  0  0  0  0  0  0  0  0
   -2.5499   -1.4483    0.0000 N   0  0  0  0  0  0  0  0  0  0  0  0
   -1.0556   -1.5787    0.0000 C   0  0  0  0  0  0  0  0  0  0  0  0
   -0.4214   -2.9381    0.0000 C   0  0  0  0  0  0  0  0  0  0  0  0
    1.0729   -3.0685    0.0000 N   0  0  0  0  0  0  0  0  0  0  0  0
    1.9330   -1.8396    0.0000 C   0  0  0  0  0  0  0  0  0  0  0  0
    3.4218   -1.6565    0.0000 N   0  0  0  0  0  0  0  0  0  0  0  0
    3.7078   -0.1840    0.0000 C   0  0  0  0  0  0  0  0  0  0  0  0
    5.0671    0.4501    0.0000 C   0  0  0  0  0  0  0  0  0  0  0  0
    6.2960   -0.4100    0.0000 C   0  0  0  0  0  0  0  0  0  0  0  0
    7.6553    0.2242    0.0000 C   0  0  0  0  0  0  0  0  0  0  0  0
    7.7858    1.7185    0.0000 C   0  0  0  0  0  0  0  0  0  0  0  0
    6.5569    2.5786    0.0000 C   0  0  0  0  0  0  0  0  0  0  0  0
    5.1975    1.9445    0.0000 C   0  0  0  0  0  0  0  0  0  0  0  0
    2.3957    0.5429    0.0000 C   0  0  0  0  0  0  0  0  0  0  0  0
    1.2988   -0.4803    0.0000 C   0  0  0  0  0  0  0  0  0  0  0  0
   -0.1955   -0.3498    0.0000 C   0  0  0  0  0  0  0  0  0  0  0  0
   -5.4512    1.3271    0.0000 C   0  0  0  0  0  0  0  0  0  0  0  0
   -4.8654    2.7080    0.0000 C   0  0  0  0  0  0  0  0  0  0  0  0
  1  2  1  0
  2  3  1  0
  3  4  1  0
  4  5  2  0
  5  6  1  0
  6  7  2  0
  6  8  1  0
  8  9  1  0
  9 10  2  0
 10 11  1  0
 11 12  2  0
 12 13  1  0
 13 14  1  0
 14 15  1  0
 15 16  2  0
 16 17  1  0
 17 18  2  0
 18 19  1  0
 19 20  2  0
 14 21  2  0
 21 22  1  0
 22 23  2  0
  5 24  1  0
 24 25  1  0
 24  2  2  0
 23  9  1  0
 22 12  1  0
 20 15  1  0
M  END
>  <BrandName>  (284) 


>  <Applicants>  (284) 
Plexxikon

>  <CHEMBL_ID>  (284) 
CHEMBL5095229

>  <Canonical_Smiles>  (284) 
Cc1[nH]nc(C(=O)Nc2cnc3[nH]c(-c4ccccc4)cc3c2)c1C

>  <Chirality>  (284) 
Achiral Molecule

>  <First_Approval>  (284) 
nan

>  <Phase>  (284) 
3.0

>  <SC_Patent>  (284) 
nan

>  <Synonyms>  (284) 
BEZUCLASTINIB | CGT-9486 | CGT9486 | PLX-9486 | PLX9486

>  <Withdrawn>  (284) 
{''}

>  <Indications>  (284) 
nan

>  <Type>  (284) 
nan

>  <targets_id>  (284) 
nan

>  <Inchi>  (284) 
InChI=1S/C19H17N5O/c1-11-12(2)23-24-17(11)19(25)21-15-8-14-9-16(22-18(14)20-10-15)13-6-4-3-5-7-13/h3-10H,1-2H3,(H,20,22)(H,21,25)(H,23,24)

>  <stdInchikey>  (284) 
NVSHVYGIYPBTEZ-UHFFFAOYSA-N

>  <csid>  (284) 
115007996

>  <Links>  (284) 
|http://www.chemspider.com/Chemical-Structure.115007996.html|https://www.ebi.ac.uk/chembldb/compound/inspect/CHEMBL5095229|https://pubchem.ncbi.nlm.nih.gov/compound/75593308|https://go.drugbank.com/drugs/DB18041|https://www.rcsb.org/ligand/WEJ|https://www.ebi.ac.uk/pdbe-srv/pdbechem/chemicalCompound/show/WEJ|https://precision.fda.gov/uniisearch/srs/unii/2ROQ545LAG|https://www.bindingdb.org/bind/chemsearch/marvin/MolStructure.jsp?monomerid=392363

>  <LinkName>  (284) 
|ChemSpider|ChEMBL|PubChem|DrugBank|RCSB|PDBe|FDA SRS|BindingDB

>  <lig_pdb_ID>  (284) 
WEJ

>  <pdb_IDs>  (284) 
7khk

>  <indicationDB>  (284) 


>  <uniprotId>  (284) 


>  <indicationG2P>  (284) 


>  <MW>  (284) 
331.1

>  <HBA>  (284) 
3

>  <HBD>  (284) 
3

>  <NRB>  (284) 
3

>  <TPSA>  (284) 
86.5

>  <LogP>  (284) 
3.8

>  <RoF>  (284) 
0

>  <Melting point>  (284) 
nan

>  <Targets>  (284) 
nan

>  <Kinase families>  (284) 


>  <FDA_approved>  (284) 


$$$$
Aumolertinib
     RDKit          2D

 39 43  0  0  0  0  0  0  0  0999 V2000
  -10.8243    0.9640    0.0000 C   0  0  0  0  0  0  0  0  0  0  0  0
   -9.4388    0.3892    0.0000 N   0  0  0  0  0  0  0  0  0  0  0  0
   -9.2438   -1.0981    0.0000 C   0  0  0  0  0  0  0  0  0  0  0  0
   -8.2483    1.3017    0.0000 C   0  0  0  0  0  0  0  0  0  0  0  0
   -6.8628    0.7270    0.0000 C   0  0  0  0  0  0  0  0  0  0  0  0
   -5.6723    1.6395    0.0000 N   0  0  0  0  0  0  0  0  0  0  0  0
   -5.8673    3.1268    0.0000 C   0  0  0  0  0  0  0  0  0  0  0  0
   -4.2868    1.0648    0.0000 C   0  0  0  0  0  0  0  0  0  0  0  0
   -3.0963    1.9773    0.0000 C   0  0  0  0  0  0  0  0  0  0  0  0
   -1.7107    1.4025    0.0000 C   0  0  0  0  0  0  0  0  0  0  0  0
   -0.5202    2.3151    0.0000 O   0  0  0  0  0  0  0  0  0  0  0  0
   -0.7153    3.8023    0.0000 C   0  0  0  0  0  0  0  0  0  0  0  0
   -1.5157   -0.0847    0.0000 C   0  0  0  0  0  0  0  0  0  0  0  0
   -2.7062   -0.9973    0.0000 C   0  0  0  0  0  0  0  0  0  0  0  0
   -4.0917   -0.4225    0.0000 C   0  0  0  0  0  0  0  0  0  0  0  0
   -5.2823   -1.3350    0.0000 N   0  0  0  0  0  0  0  0  0  0  0  0
   -5.0872   -2.8223    0.0000 C   0  0  0  0  0  0  0  0  0  0  0  0
   -3.7017   -3.3970    0.0000 O   0  0  0  0  0  0  0  0  0  0  0  0
   -6.2777   -3.7348    0.0000 C   0  0  0  0  0  0  0  0  0  0  0  0
   -6.0827   -5.2221    0.0000 C   0  0  0  0  0  0  0  0  0  0  0  0
   -0.1302   -0.6595    0.0000 N   0  0  0  0  0  0  0  0  0  0  0  0
    1.0603    0.2530    0.0000 C   0  0  0  0  0  0  0  0  0  0  0  0
    2.4458   -0.3217    0.0000 N   0  0  0  0  0  0  0  0  0  0  0  0
    3.6363    0.5908    0.0000 C   0  0  0  0  0  0  0  0  0  0  0  0
    3.4413    2.0781    0.0000 C   0  0  0  0  0  0  0  0  0  0  0  0
    2.0558    2.6528    0.0000 C   0  0  0  0  0  0  0  0  0  0  0  0
    0.8653    1.7403    0.0000 N   0  0  0  0  0  0  0  0  0  0  0  0
    5.0218    0.0161    0.0000 C   0  0  0  0  0  0  0  0  0  0  0  0
    5.3713   -1.4427    0.0000 C   0  0  0  0  0  0  0  0  0  0  0  0
    6.8666   -1.5611    0.0000 N   0  0  0  0  0  0  0  0  0  0  0  0
    7.6497   -2.8405    0.0000 C   0  0  0  0  0  0  0  0  0  0  0  0
    8.9675   -3.5569    0.0000 C   0  0  0  0  0  0  0  0  0  0  0  0
    7.6881   -4.3400    0.0000 C   0  0  0  0  0  0  0  0  0  0  0  0
    7.4413   -0.1756    0.0000 C   0  0  0  0  0  0  0  0  0  0  0  0
    8.8555    0.3244    0.0000 C   0  0  0  0  0  0  0  0  0  0  0  0
    9.1297    1.7991    0.0000 C   0  0  0  0  0  0  0  0  0  0  0  0
    7.9896    2.7739    0.0000 C   0  0  0  0  0  0  0  0  0  0  0  0
    6.5753    2.2739    0.0000 C   0  0  0  0  0  0  0  0  0  0  0  0
    6.3012    0.7992    0.0000 C   0  0  0  0  0  0  0  0  0  0  0  0
  1  2  1  0
  2  3  1  0
  2  4  1  0
  4  5  1  0
  5  6  1  0
  6  7  1  0
  6  8  1  0
  8  9  2  0
  9 10  1  0
 10 11  1  0
 11 12  1  0
 10 13  2  0
 13 14  1  0
 14 15  2  0
 15 16  1  0
 16 17  1  0
 17 18  2  0
 17 19  1  0
 19 20  2  0
 13 21  1  0
 21 22  1  0
 22 23  2  0
 23 24  1  0
 24 25  2  0
 25 26  1  0
 26 27  2  0
 24 28  1  0
 28 29  2  0
 29 30  1  0
 30 31  1  0
 31 32  1  0
 32 33  1  0
 30 34  1  0
 34 35  2  0
 35 36  1  0
 36 37  2  0
 37 38  1  0
 38 39  2  0
 15  8  1  0
 27 22  1  0
 39 28  1  0
 33 31  1  0
 39 34  1  0
M  END
>  <BrandName>  (285) 
Ameile;Amerol

>  <Applicants>  (285) 
Jiangsu Hansoh Pharmaceutical

>  <CHEMBL_ID>  (285) 
CHEMBL4761468

>  <Canonical_Smiles>  (285) 
CN(C)CCN(C)C1C=C(OC)C(=CC=1NC(=O)C=C)NC1N=C(C=CN=1)C1=CN(C2CC2)C2C=CC=CC=21

>  <Chirality>  (285) 
Achiral Molecule

>  <First_Approval>  (285) 
nan

>  <Phase>  (285) 
3.0

>  <SC_Patent>  (285) 
nan

>  <Synonyms>  (285) 
ALMONERTINIB | AMEILE | AMEROL | AUMOLERTINIB | EGFR T790M INHIBITOR HS-10296 | EQ-143 | EQ143 | HS 10296 | HS-10206 | HS-10296

>  <Withdrawn>  (285) 
{''}

>  <Indications>  (285) 
nan

>  <Type>  (285) 
nan

>  <targets_id>  (285) 
nan

>  <Inchi>  (285) 
InChI=1S/C30H35N7O2/c1-6-29(38)32-24-17-25(28(39-5)18-27(24)36(4)16-15-35(2)3)34-30-31-14-13-23(33-30)22-19-37(20-11-12-20)26-10-8-7-9-21(22)26/h6-10,13-14,17-20H,1,11-12,15-16H2,2-5H3,(H,32,38)(H,31,33,34)

>  <stdInchikey>  (285) 
DOEOECWDNSEFDN-UHFFFAOYSA-N

>  <csid>  (285) 
75535991

>  <Links>  (285) 
|http://www.chemspider.com/Chemical-Structure.75535991.html|https://www.ebi.ac.uk/chembldb/compound/inspect/CHEMBL4761468|https://pubchem.ncbi.nlm.nih.gov/compound/121280087|https://go.drugbank.com/drugs/DB16640|https://www.guidetopharmacology.org/GRAC/LigandDisplayForward?11136|https://precision.fda.gov/uniisearch/srs/unii/T4RS462G19

>  <LinkName>  (285) 
|ChemSpider|ChEMBL|PubChem|DrugBank|Guide to Pharmacology|FDA SRS

>  <lig_pdb_ID>  (285) 


>  <pdb_IDs>  (285) 


>  <indicationDB>  (285) 


>  <uniprotId>  (285) 


>  <indicationG2P>  (285) 
None

>  <MW>  (285) 
525.3

>  <HBA>  (285) 
8

>  <HBD>  (285) 
2

>  <NRB>  (285) 
11

>  <TPSA>  (285) 
87.6

>  <LogP>  (285) 
5.3

>  <RoF>  (285) 
2

>  <Melting point>  (285) 
nan

>  <Targets>  (285) 
nan

>  <Kinase families>  (285) 


>  <FDA_approved>  (285) 


$$$$
Alvocidib
     RDKit          2D

 28 31  0  0  0  0  0  0  0  0999 V2000
   -3.8841   -4.9071    0.0000 C   0  0  0  0  0  0  0  0  0  0  0  0
   -3.4213   -3.4803    0.0000 N   0  0  0  0  0  0  0  0  0  0  0  0
   -4.4255   -2.3661    0.0000 C   0  0  0  0  0  0  0  0  0  0  0  0
   -3.9627   -0.9392    0.0000 C   0  0  0  0  0  0  0  0  0  0  0  0
   -2.4956   -0.6266    0.0000 C   0  0  0  0  0  0  0  0  0  0  0  0
   -1.4914   -1.7409    0.0000 C   0  0  0  0  0  0  0  0  0  0  0  0
   -1.9542   -3.1677    0.0000 C   0  0  0  0  0  0  0  0  0  0  0  0
   -0.0243   -1.4283    0.0000 O   0  0  0  0  0  0  0  0  0  0  0  0
   -2.0328    0.8002    0.0000 C   0  0  0  0  0  0  0  0  0  0  0  0
   -3.0371    1.9144    0.0000 C   0  0  0  0  0  0  0  0  0  0  0  0
   -2.5743    3.3412    0.0000 C   0  0  0  0  0  0  0  0  0  0  0  0
   -1.1072    3.6538    0.0000 C   0  0  0  0  0  0  0  0  0  0  0  0
   -0.1029    2.5396    0.0000 C   0  0  0  0  0  0  0  0  0  0  0  0
   -0.5658    1.1128    0.0000 C   0  0  0  0  0  0  0  0  0  0  0  0
    0.4385   -0.0014    0.0000 O   0  0  0  0  0  0  0  0  0  0  0  0
    1.9056    0.3112    0.0000 C   0  0  0  0  0  0  0  0  0  0  0  0
    2.3684    1.7380    0.0000 C   0  0  0  0  0  0  0  0  0  0  0  0
    1.3641    2.8522    0.0000 C   0  0  0  0  0  0  0  0  0  0  0  0
    1.8269    4.2790    0.0000 O   0  0  0  0  0  0  0  0  0  0  0  0
    2.9098   -0.8031    0.0000 C   0  0  0  0  0  0  0  0  0  0  0  0
    2.4470   -2.2299    0.0000 C   0  0  0  0  0  0  0  0  0  0  0  0
    3.4513   -3.3441    0.0000 C   0  0  0  0  0  0  0  0  0  0  0  0
    4.9183   -3.0315    0.0000 C   0  0  0  0  0  0  0  0  0  0  0  0
    5.3811   -1.6047    0.0000 C   0  0  0  0  0  0  0  0  0  0  0  0
    4.3769   -0.4905    0.0000 C   0  0  0  0  0  0  0  0  0  0  0  0
    4.8397    0.9364    0.0000 Cl  0  0  0  0  0  0  0  0  0  0  0  0
   -0.6444    5.0806    0.0000 O   0  0  0  0  0  0  0  0  0  0  0  0
   -4.5041    1.6018    0.0000 O   0  0  0  0  0  0  0  0  0  0  0  0
  1  2  1  0
  2  3  1  0
  3  4  1  0
  4  5  1  0
  5  6  1  0
  6  7  1  0
  6  8  1  6
  5  9  1  6
  9 10  2  0
 10 11  1  0
 11 12  2  0
 12 13  1  0
 13 14  2  0
 14 15  1  0
 15 16  1  0
 16 17  2  0
 17 18  1  0
 18 19  2  0
 16 20  1  0
 20 21  2  0
 21 22  1  0
 22 23  2  0
 23 24  1  0
 24 25  2  0
 25 26  1  0
 12 27  1  0
 10 28  1  0
  7  2  1  0
 14  9  1  0
 18 13  1  0
 25 20  1  0
M  END
>  <BrandName>  (286) 


>  <Applicants>  (286) 
Sanofi

>  <CHEMBL_ID>  (286) 
CHEMBL428690

>  <Canonical_Smiles>  (286) 
CN1CC[C@@H]([C@@H](C1)O)c2c(cc(c3c2oc(cc3=O)c4ccccc4Cl)O)O

>  <Chirality>  (286) 
Single Stereoisomer

>  <First_Approval>  (286) 
nan

>  <Phase>  (286) 
3.0

>  <SC_Patent>  (286) 
nan

>  <Synonyms>  (286) 
ALVOCIDIB | ALVOCIDIB FREEBASE | FLAVOPIRIDOL | HL 275 | HL-275 | HMR 1275 | HMR-1275 | L 86 8275 | L-868275 | L86-8275 | MDL 107,826A | MDL-107826A | NSC-649890

>  <Withdrawn>  (286) 
{'', 'Study NCT04493099 in United States was Withdrawn during PHASE1 because The original sponsor was acquired by a new company and has elected to end funding for all Investigator Sponsored Trials (ISTs)'}

>  <Indications>  (286) 
Investigated for use/treatment in esophageal cancer, leukemia (lymphoid), lung cancer, liver cancer, and lymphoma (unspecified).

>  <Type>  (286) 
nan

>  <targets_id>  (286) 
nan

>  <Inchi>  (286) 
InChI=1S/C21H20ClNO5/c1-23-7-6-12(17(27)10-23)19-14(24)8-15(25)20-16(26)9-18(28-21(19)20)11-4-2-3-5-13(11)22/h2-5,8-9,12,17,24-25,27H,6-7,10H2,1H3/t12-,17+/m0/s1

>  <stdInchikey>  (286) 
BIIVYFLTOXDAOV-YVEFUNNKSA-N

>  <csid>  (286) 
4450222

>  <Links>  (286) 
|http://www.chemspider.com/Chemical-Structure.4450222.html|https://www.ebi.ac.uk/chembldb/compound/inspect/CHEMBL428690|https://pubchem.ncbi.nlm.nih.gov/compound/5287969|https://go.drugbank.com/drugs/DB03496|https://www.rcsb.org/ligand/CPB|https://www.ebi.ac.uk/pdbe-srv/pdbechem/chemicalCompound/show/CPB|https://www.guidetopharmacology.org/GRAC/LigandDisplayForward?5680|https://zinc15.docking.org/substances/ZINC000021288966|https://precision.fda.gov/uniisearch/srs/unii/45AD6X575G|https://www.bindingdb.org/bind/chemsearch/marvin/MolStructure.jsp?monomerid=5655

>  <LinkName>  (286) 
|ChemSpider|ChEMBL|PubChem|DrugBank|RCSB|PDBe|Guide to Pharmacology|ZINC|FDA SRS|BindingDB

>  <lig_pdb_ID>  (286) 
CPB

>  <pdb_IDs>  (286) 
1c8k 1e1y 3blr 3ebp 4o71

>  <indicationDB>  (286) 


>  <uniprotId>  (286) 


>  <indicationG2P>  (286) 
None

>  <MW>  (286) 
401.1

>  <HBA>  (286) 
6

>  <HBD>  (286) 
3

>  <NRB>  (286) 
2

>  <TPSA>  (286) 
94.1

>  <LogP>  (286) 
3.3

>  <RoF>  (286) 
0

>  <Melting point>  (286) 
nan

>  <Targets>  (286) 
nan

>  <Kinase families>  (286) 


>  <FDA_approved>  (286) 


$$$$
Surufatinib
     RDKit          2D

 34 37  0  0  0  0  0  0  0  0999 V2000
   -9.8837   -3.9420    0.0000 C   0  0  0  0  0  0  0  0  0  0  0  0
   -9.1556   -2.6306    0.0000 C   0  0  0  0  0  0  0  0  0  0  0  0
   -7.6667   -2.4487    0.0000 C   0  0  0  0  0  0  0  0  0  0  0  0
   -7.3795   -0.9765    0.0000 C   0  0  0  0  0  0  0  0  0  0  0  0
   -6.0933   -0.2048    0.0000 C   0  0  0  0  0  0  0  0  0  0  0  0
   -6.1184    1.2950    0.0000 C   0  0  0  0  0  0  0  0  0  0  0  0
   -7.4299    2.0231    0.0000 C   0  0  0  0  0  0  0  0  0  0  0  0
   -8.7162    1.2514    0.0000 C   0  0  0  0  0  0  0  0  0  0  0  0
   -8.6910   -0.2484    0.0000 C   0  0  0  0  0  0  0  0  0  0  0  0
   -9.7887   -1.2707    0.0000 N   0  0  0  0  0  0  0  0  0  0  0  0
   -4.8322    2.0667    0.0000 O   0  0  0  0  0  0  0  0  0  0  0  0
   -3.5207    1.3386    0.0000 C   0  0  0  0  0  0  0  0  0  0  0  0
   -3.4955   -0.1611    0.0000 C   0  0  0  0  0  0  0  0  0  0  0  0
   -2.1841   -0.8892    0.0000 C   0  0  0  0  0  0  0  0  0  0  0  0
   -0.8978   -0.1175    0.0000 N   0  0  0  0  0  0  0  0  0  0  0  0
   -0.9230    1.3823    0.0000 C   0  0  0  0  0  0  0  0  0  0  0  0
   -2.2345    2.1104    0.0000 N   0  0  0  0  0  0  0  0  0  0  0  0
    0.3632    2.1540    0.0000 N   0  0  0  0  0  0  0  0  0  0  0  0
    1.6747    1.4259    0.0000 C   0  0  0  0  0  0  0  0  0  0  0  0
    1.6999   -0.0739    0.0000 C   0  0  0  0  0  0  0  0  0  0  0  0
    3.0113   -0.8020    0.0000 C   0  0  0  0  0  0  0  0  0  0  0  0
    4.2976   -0.0302    0.0000 C   0  0  0  0  0  0  0  0  0  0  0  0
    4.2724    1.4695    0.0000 C   0  0  0  0  0  0  0  0  0  0  0  0
    2.9609    2.1976    0.0000 C   0  0  0  0  0  0  0  0  0  0  0  0
    5.5587    2.2413    0.0000 C   0  0  0  0  0  0  0  0  0  0  0  0
    6.8701    1.5132    0.0000 S   0  0  0  0  0  0  0  0  0  0  0  0
    7.5982    2.8246    0.0000 O   0  0  0  0  0  0  0  0  0  0  0  0
    6.1420    0.2017    0.0000 O   0  0  0  0  0  0  0  0  0  0  0  0
    8.1816    0.7851    0.0000 N   0  0  0  0  0  0  0  0  0  0  0  0
    8.2067   -0.7147    0.0000 C   0  0  0  0  0  0  0  0  0  0  0  0
    9.5182   -1.4428    0.0000 C   0  0  0  0  0  0  0  0  0  0  0  0
    9.5434   -2.9425    0.0000 N   0  0  0  0  0  0  0  0  0  0  0  0
   10.8548   -3.6706    0.0000 C   0  0  0  0  0  0  0  0  0  0  0  0
    8.2571   -3.7143    0.0000 C   0  0  0  0  0  0  0  0  0  0  0  0
  1  2  1  0
  2  3  2  0
  3  4  1  0
  4  5  2  0
  5  6  1  0
  6  7  2  0
  7  8  1  0
  8  9  2  0
  9 10  1  0
  6 11  1  0
 11 12  1  0
 12 13  2  0
 13 14  1  0
 14 15  2  0
 15 16  1  0
 16 17  2  0
 16 18  1  0
 18 19  1  0
 19 20  2  0
 20 21  1  0
 21 22  2  0
 22 23  1  0
 23 24  2  0
 23 25  1  0
 25 26  1  0
 26 27  2  0
 26 28  2  0
 26 29  1  0
 29 30  1  0
 30 31  1  0
 31 32  1  0
 32 33  1  0
 32 34  1  0
 10  2  1  0
  9  4  1  0
 17 12  1  0
 24 19  1  0
M  END
>  <BrandName>  (287) 


>  <Applicants>  (287) 
Hutchison MediPharma

>  <CHEMBL_ID>  (287) 
CHEMBL4297190

>  <Canonical_Smiles>  (287) 
Cc1cc2cc(ccc2[nH]1)Oc3ccnc(n3)Nc4cccc(c4)CS(=O)(=O)NCCN(C)C

>  <Chirality>  (287) 
Achiral Molecule

>  <First_Approval>  (287) 
nan

>  <Phase>  (287) 
3.0

>  <SC_Patent>  (287) 
nan

>  <Synonyms>  (287) 
HMPL-012 | SULFATINIB | SURUFATINIB

>  <Withdrawn>  (287) 
{''}

>  <Indications>  (287) 
nan

>  <Type>  (287) 
nan

>  <targets_id>  (287) 
nan

>  <Inchi>  (287) 
InChI=1S/C24H28N6O3S/c1-17-13-19-15-21(7-8-22(19)27-17)33-23-9-10-25-24(29-23)28-20-6-4-5-18(14-20)16-34(31,32)26-11-12-30(2)3/h4-10,13-15,26-27H,11-12,16H2,1-3H3,(H,25,28,29)

>  <stdInchikey>  (287) 
TTZSNFLLYPYKIL-UHFFFAOYSA-N

>  <csid>  (287) 
57583328

>  <Links>  (287) 
|http://www.chemspider.com/Chemical-Structure.57583328.html|https://www.ebi.ac.uk/chembldb/compound/inspect/CHEMBL4297190|https://pubchem.ncbi.nlm.nih.gov/compound/52920501|https://go.drugbank.com/drugs/DB15106|https://www.rcsb.org/ligand/UKI|https://www.ebi.ac.uk/pdbe-srv/pdbechem/chemicalCompound/show/UKI|https://www.guidetopharmacology.org/GRAC/LigandDisplayForward?9769|https://zinc15.docking.org/substances/ZINC000117218067|https://precision.fda.gov/uniisearch/srs/unii/B2K5L1L8S9

>  <LinkName>  (287) 
|ChemSpider|ChEMBL|PubChem|DrugBank|RCSB|PDBe|Guide to Pharmacology|ZINC|FDA SRS

>  <lig_pdb_ID>  (287) 
UKI

>  <pdb_IDs>  (287) 
8jmz 8jot

>  <indicationDB>  (287) 


>  <uniprotId>  (287) 


>  <indicationG2P>  (287) 
None

>  <MW>  (287) 
480.2

>  <HBA>  (287) 
7

>  <HBD>  (287) 
3

>  <NRB>  (287) 
10

>  <TPSA>  (287) 
112.2

>  <LogP>  (287) 
3.8

>  <RoF>  (287) 
0

>  <Melting point>  (287) 
nan

>  <Targets>  (287) 
nan

>  <Kinase families>  (287) 


>  <FDA_approved>  (287) 


$$$$
Saracatinib
     RDKit          2D

 38 43  0  0  0  0  0  0  0  0999 V2000
   11.0025   -2.1096    0.0000 C   0  0  0  0  0  0  0  0  0  0  0  0
    9.7418   -1.2969    0.0000 N   0  0  0  0  0  0  0  0  0  0  0  0
    8.4076   -1.9824    0.0000 C   0  0  0  0  0  0  0  0  0  0  0  0
    7.1468   -1.1697    0.0000 C   0  0  0  0  0  0  0  0  0  0  0  0
    7.2203    0.3285    0.0000 N   0  0  0  0  0  0  0  0  0  0  0  0
    8.5545    1.0140    0.0000 C   0  0  0  0  0  0  0  0  0  0  0  0
    9.8152    0.2013    0.0000 C   0  0  0  0  0  0  0  0  0  0  0  0
    5.9595    1.1413    0.0000 C   0  0  0  0  0  0  0  0  0  0  0  0
    4.6253    0.4558    0.0000 C   0  0  0  0  0  0  0  0  0  0  0  0
    3.3646    1.2685    0.0000 O   0  0  0  0  0  0  0  0  0  0  0  0
    2.0304    0.5830    0.0000 C   0  0  0  0  0  0  0  0  0  0  0  0
    1.9569   -0.9152    0.0000 C   0  0  0  0  0  0  0  0  0  0  0  0
    0.6227   -1.6007    0.0000 C   0  0  0  0  0  0  0  0  0  0  0  0
   -0.6381   -0.7880    0.0000 C   0  0  0  0  0  0  0  0  0  0  0  0
   -0.5646    0.7102    0.0000 C   0  0  0  0  0  0  0  0  0  0  0  0
    0.7696    1.3957    0.0000 C   0  0  0  0  0  0  0  0  0  0  0  0
   -1.8254    1.5229    0.0000 O   0  0  0  0  0  0  0  0  0  0  0  0
   -1.7519    3.0211    0.0000 C   0  0  0  0  0  0  0  0  0  0  0  0
   -0.4177    3.7066    0.0000 C   0  0  0  0  0  0  0  0  0  0  0  0
   -0.3442    5.2048    0.0000 C   0  0  0  0  0  0  0  0  0  0  0  0
   -1.6050    6.0175    0.0000 O   0  0  0  0  0  0  0  0  0  0  0  0
   -2.9392    5.3320    0.0000 C   0  0  0  0  0  0  0  0  0  0  0  0
   -3.0127    3.8338    0.0000 C   0  0  0  0  0  0  0  0  0  0  0  0
   -1.9723   -1.4735    0.0000 C   0  0  0  0  0  0  0  0  0  0  0  0
   -2.0457   -2.9717    0.0000 N   0  0  0  0  0  0  0  0  0  0  0  0
   -0.7850   -3.7844    0.0000 C   0  0  0  0  0  0  0  0  0  0  0  0
    0.5493   -3.0989    0.0000 N   0  0  0  0  0  0  0  0  0  0  0  0
   -3.2330   -0.6608    0.0000 N   0  0  0  0  0  0  0  0  0  0  0  0
   -4.5672   -1.3463    0.0000 C   0  0  0  0  0  0  0  0  0  0  0  0
   -4.6407   -2.8445    0.0000 C   0  0  0  0  0  0  0  0  0  0  0  0
   -5.9749   -3.5299    0.0000 C   0  0  0  0  0  0  0  0  0  0  0  0
   -7.2356   -2.7172    0.0000 C   0  0  0  0  0  0  0  0  0  0  0  0
   -7.1622   -1.2190    0.0000 C   0  0  0  0  0  0  0  0  0  0  0  0
   -5.8280   -0.5335    0.0000 C   0  0  0  0  0  0  0  0  0  0  0  0
   -6.0676    0.9472    0.0000 O   0  0  0  0  0  0  0  0  0  0  0  0
   -7.5499    1.1768    0.0000 C   0  0  0  0  0  0  0  0  0  0  0  0
   -8.2264   -0.1620    0.0000 O   0  0  0  0  0  0  0  0  0  0  0  0
   -3.3799   -3.6572    0.0000 Cl  0  0  0  0  0  0  0  0  0  0  0  0
  1  2  1  0
  2  3  1  0
  3  4  1  0
  4  5  1  0
  5  6  1  0
  6  7  1  0
  5  8  1  0
  8  9  1  0
  9 10  1  0
 10 11  1  0
 11 12  2  0
 12 13  1  0
 13 14  2  0
 14 15  1  0
 15 16  2  0
 15 17  1  0
 17 18  1  0
 18 19  1  0
 19 20  1  0
 20 21  1  0
 21 22  1  0
 22 23  1  0
 14 24  1  0
 24 25  2  0
 25 26  1  0
 26 27  2  0
 24 28  1  0
 28 29  1  0
 29 30  2  0
 30 31  1  0
 31 32  2  0
 32 33  1  0
 33 34  2  0
 34 35  1  0
 35 36  1  0
 36 37  1  0
 30 38  1  0
  7  2  1  0
 16 11  1  0
 27 13  1  0
 23 18  1  0
 34 29  1  0
 37 33  1  0
M  END
>  <BrandName>  (288) 


>  <Applicants>  (288) 
Astrazeneca

>  <CHEMBL_ID>  (288) 
CHEMBL217092

>  <Canonical_Smiles>  (288) 
CN1CCN(CC1)CCOc2cc3c(c(c2)OC4CCOCC4)c(ncn3)Nc5c(ccc6c5OCO6)Cl

>  <Chirality>  (288) 
Achiral Molecule

>  <First_Approval>  (288) 
nan

>  <Phase>  (288) 
3.0

>  <SC_Patent>  (288) 
nan

>  <Synonyms>  (288) 
AZ-10353926 | AZD-0530 | AZD0530 | SARACATINIB

>  <Withdrawn>  (288) 
{''}

>  <Indications>  (288) 
nan

>  <Type>  (288) 
1

>  <targets_id>  (288) 
P12931|P00519

>  <Inchi>  (288) 
InChI=1S/C27H32ClN5O5/c1-32-6-8-33(9-7-32)10-13-35-19-14-21-24(23(15-19)38-18-4-11-34-12-5-18)27(30-16-29-21)31-25-20(28)2-3-22-26(25)37-17-36-22/h2-3,14-16,18H,4-13,17H2,1H3,(H,29,30,31)

>  <stdInchikey>  (288) 
OUKYUETWWIPKQR-UHFFFAOYSA-N

>  <csid>  (288) 
8477917

>  <Links>  (288) 
|http://www.chemspider.com/Chemical-Structure.8477917.html|https://www.ebi.ac.uk/chembldb/compound/inspect/CHEMBL217092|https://pubchem.ncbi.nlm.nih.gov/compound/10302451|https://go.drugbank.com/drugs/DB11805|https://www.rcsb.org/ligand/H8H|https://www.ebi.ac.uk/pdbe-srv/pdbechem/chemicalCompound/show/H8H|https://www.guidetopharmacology.org/GRAC/LigandDisplayForward?7731|https://zinc15.docking.org/substances/ZINC000024811973|https://precision.fda.gov/uniisearch/srs/unii/9KD24QGH76|https://www.bindingdb.org/bind/chemsearch/marvin/MolStructure.jsp?monomerid=12255

>  <LinkName>  (288) 
|ChemSpider|ChEMBL|PubChem|DrugBank|RCSB|PDBe|Guide to Pharmacology|ZINC|FDA SRS|BindingDB

>  <lig_pdb_ID>  (288) 
H8H

>  <pdb_IDs>  (288) 
2h8h 4qmx 5vcx 5vd3 6zgc

>  <indicationDB>  (288) 


>  <uniprotId>  (288) 


>  <indicationG2P>  (288) 
None

>  <MW>  (288) 
541.2

>  <HBA>  (288) 
10

>  <HBD>  (288) 
1

>  <NRB>  (288) 
8

>  <TPSA>  (288) 
90.4

>  <LogP>  (288) 
3.9

>  <RoF>  (288) 
1

>  <Melting point>  (288) 
nan

>  <Targets>  (288) 
SRC; ABL1

>  <Kinase families>  (288) 
Tyr

>  <FDA_approved>  (288) 


$$$$
Vatalanib
     RDKit          2D

 25 28  0  0  0  0  0  0  0  0999 V2000
    1.6785   -4.6384    0.0000 C   0  0  0  0  0  0  0  0  0  0  0  0
    0.1942   -4.8554    0.0000 C   0  0  0  0  0  0  0  0  0  0  0  0
   -0.7358   -3.6785    0.0000 C   0  0  0  0  0  0  0  0  0  0  0  0
   -0.1815   -2.2846    0.0000 C   0  0  0  0  0  0  0  0  0  0  0  0
    1.3027   -2.0677    0.0000 C   0  0  0  0  0  0  0  0  0  0  0  0
    2.2327   -3.2446    0.0000 C   0  0  0  0  0  0  0  0  0  0  0  0
    1.8570   -0.6738    0.0000 C   0  0  0  0  0  0  0  0  0  0  0  0
    0.9270    0.5031    0.0000 N   0  0  0  0  0  0  0  0  0  0  0  0
   -0.5572    0.2862    0.0000 N   0  0  0  0  0  0  0  0  0  0  0  0
   -1.1115   -1.1077    0.0000 C   0  0  0  0  0  0  0  0  0  0  0  0
   -2.5957   -1.3246    0.0000 N   0  0  0  0  0  0  0  0  0  0  0  0
   -3.5257   -0.1477    0.0000 C   0  0  0  0  0  0  0  0  0  0  0  0
   -2.9715    1.2461    0.0000 C   0  0  0  0  0  0  0  0  0  0  0  0
   -3.9014    2.4231    0.0000 C   0  0  0  0  0  0  0  0  0  0  0  0
   -5.3857    2.2061    0.0000 C   0  0  0  0  0  0  0  0  0  0  0  0
   -5.9399    0.8123    0.0000 C   0  0  0  0  0  0  0  0  0  0  0  0
   -5.0099   -0.3646    0.0000 C   0  0  0  0  0  0  0  0  0  0  0  0
   -6.3156    3.3830    0.0000 Cl  0  0  0  0  0  0  0  0  0  0  0  0
    3.3412   -0.4569    0.0000 C   0  0  0  0  0  0  0  0  0  0  0  0
    3.8955    0.9369    0.0000 C   0  0  0  0  0  0  0  0  0  0  0  0
    5.3797    1.1539    0.0000 C   0  0  0  0  0  0  0  0  0  0  0  0
    5.9339    2.5477    0.0000 C   0  0  0  0  0  0  0  0  0  0  0  0
    5.0040    3.7246    0.0000 N   0  0  0  0  0  0  0  0  0  0  0  0
    3.5197    3.5077    0.0000 C   0  0  0  0  0  0  0  0  0  0  0  0
    2.9655    2.1139    0.0000 C   0  0  0  0  0  0  0  0  0  0  0  0
  1  2  2  0
  2  3  1  0
  3  4  2  0
  4  5  1  0
  5  6  2  0
  5  7  1  0
  7  8  2  0
  8  9  1  0
  9 10  2  0
 10 11  1  0
 11 12  1  0
 12 13  2  0
 13 14  1  0
 14 15  2  0
 15 16  1  0
 16 17  2  0
 15 18  1  0
  7 19  1  0
 19 20  1  0
 20 21  2  0
 21 22  1  0
 22 23  2  0
 23 24  1  0
 24 25  2  0
  6  1  1  0
 10  4  1  0
 17 12  1  0
 25 20  1  0
M  END
>  <BrandName>  (289) 


>  <Applicants>  (289) 
Novartis

>  <CHEMBL_ID>  (289) 
CHEMBL101253

>  <Canonical_Smiles>  (289) 
c1ccc2c(c1)c(nnc2Nc3ccc(cc3)Cl)Cc4ccncc4

>  <Chirality>  (289) 
Achiral Molecule

>  <First_Approval>  (289) 
nan

>  <Phase>  (289) 
3.0

>  <SC_Patent>  (289) 
nan

>  <Synonyms>  (289) 
BAY-86-5127 | CGP-79787 | K-222584 | NVP-PTK787 | PTK-787 | PTK787 | VATALANIB | VATALANIB SUCCINATE | ZK-222584 | ZK222584

>  <Withdrawn>  (289) 
{''}

>  <Indications>  (289) 
Used in combination with first- and second-line chemotherapy for the treatment of metastatic colorectal cancer and non-small cell lung cancer (NSCLC).

>  <Type>  (289) 
nan

>  <targets_id>  (289) 
P17948|P35968|P35916

>  <Inchi>  (289) 
InChI=1S/C20H15ClN4/c21-15-5-7-16(8-6-15)23-20-18-4-2-1-3-17(18)19(24-25-20)13-14-9-11-22-12-10-14/h1-12H,13H2,(H,23,25)

>  <stdInchikey>  (289) 
YCOYDOIWSSHVCK-UHFFFAOYSA-N

>  <csid>  (289) 
133257

>  <Links>  (289) 
|http://www.chemspider.com/Chemical-Structure.133257.html|https://www.ebi.ac.uk/chembldb/compound/inspect/CHEMBL101253|https://pubchem.ncbi.nlm.nih.gov/compound/151194|https://go.drugbank.com/drugs/DB04879|https://www.guidetopharmacology.org/GRAC/LigandDisplayForward?5705|https://zinc15.docking.org/substances/ZINC000000007460|https://precision.fda.gov/uniisearch/srs/unii/5DX9U76296|https://www.bindingdb.org/bind/chemsearch/marvin/MolStructure.jsp?monomerid=4851

>  <LinkName>  (289) 
|ChemSpider|ChEMBL|PubChem|DrugBank|Guide to Pharmacology|ZINC|FDA SRS|BindingDB

>  <lig_pdb_ID>  (289) 


>  <pdb_IDs>  (289) 


>  <indicationDB>  (289) 


>  <uniprotId>  (289) 


>  <indicationG2P>  (289) 
None

>  <MW>  (289) 
346.1

>  <HBA>  (289) 
4

>  <HBD>  (289) 
1

>  <NRB>  (289) 
4

>  <TPSA>  (289) 
50.7

>  <LogP>  (289) 
5.0

>  <RoF>  (289) 
1

>  <Melting point>  (289) 
nan

>  <Targets>  (289) 
FLT1; KDR; FLT4

>  <Kinase families>  (289) 
Tyr

>  <FDA_approved>  (289) 


$$$$
Itacitinib
     RDKit          2D

 40 45  0  0  0  0  0  0  0  0999 V2000
    8.5378   -2.0811    0.0000 C   0  0  0  0  0  0  0  0  0  0  0  0
    9.8755   -2.7598    0.0000 C   0  0  0  0  0  0  0  0  0  0  0  0
   10.9343   -1.6973    0.0000 N   0  0  0  0  0  0  0  0  0  0  0  0
   10.2510   -0.3620    0.0000 C   0  0  0  0  0  0  0  0  0  0  0  0
   10.7862    1.0393    0.0000 N   0  0  0  0  0  0  0  0  0  0  0  0
    9.8402    2.2034    0.0000 C   0  0  0  0  0  0  0  0  0  0  0  0
    8.3590    1.9662    0.0000 N   0  0  0  0  0  0  0  0  0  0  0  0
    7.8239    0.5649    0.0000 C   0  0  0  0  0  0  0  0  0  0  0  0
    8.7699   -0.5992    0.0000 C   0  0  0  0  0  0  0  0  0  0  0  0
    6.3428    0.3277    0.0000 C   0  0  0  0  0  0  0  0  0  0  0  0
    5.6641   -1.0099    0.0000 C   0  0  0  0  0  0  0  0  0  0  0  0
    4.1822   -0.7778    0.0000 N   0  0  0  0  0  0  0  0  0  0  0  0
    3.9450    0.7033    0.0000 N   0  0  0  0  0  0  0  0  0  0  0  0
    5.2803    1.3866    0.0000 C   0  0  0  0  0  0  0  0  0  0  0  0
    2.6073    1.3820    0.0000 C   0  0  0  0  0  0  0  0  0  0  0  0
    1.9286    0.0443    0.0000 C   0  0  0  0  0  0  0  0  0  0  0  0
    0.5909    0.7230    0.0000 N   0  0  0  0  0  0  0  0  0  0  0  0
    1.2696    2.0607    0.0000 C   0  0  0  0  0  0  0  0  0  0  0  0
   -0.8349    0.2570    0.0000 C   0  0  0  0  0  0  0  0  0  0  0  0
   -1.9513    1.2588    0.0000 C   0  0  0  0  0  0  0  0  0  0  0  0
   -3.3771    0.7928    0.0000 C   0  0  0  0  0  0  0  0  0  0  0  0
   -3.6864   -0.6750    0.0000 N   0  0  0  0  0  0  0  0  0  0  0  0
   -2.5700   -1.6767    0.0000 C   0  0  0  0  0  0  0  0  0  0  0  0
   -1.1442   -1.2108    0.0000 C   0  0  0  0  0  0  0  0  0  0  0  0
   -5.1122   -1.1409    0.0000 C   0  0  0  0  0  0  0  0  0  0  0  0
   -5.4216   -2.6087    0.0000 O   0  0  0  0  0  0  0  0  0  0  0  0
   -6.2287   -0.1392    0.0000 C   0  0  0  0  0  0  0  0  0  0  0  0
   -5.9193    1.3286    0.0000 C   0  0  0  0  0  0  0  0  0  0  0  0
   -7.0358    2.3304    0.0000 C   0  0  0  0  0  0  0  0  0  0  0  0
   -8.4616    1.8644    0.0000 N   0  0  0  0  0  0  0  0  0  0  0  0
   -8.7709    0.3966    0.0000 C   0  0  0  0  0  0  0  0  0  0  0  0
   -7.6545   -0.6051    0.0000 C   0  0  0  0  0  0  0  0  0  0  0  0
   -7.9638   -2.0729    0.0000 F   0  0  0  0  0  0  0  0  0  0  0  0
  -10.1967   -0.0693    0.0000 C   0  0  0  0  0  0  0  0  0  0  0  0
  -11.6225   -0.5353    0.0000 F   0  0  0  0  0  0  0  0  0  0  0  0
  -10.6627    1.3565    0.0000 F   0  0  0  0  0  0  0  0  0  0  0  0
   -9.7307   -1.4951    0.0000 F   0  0  0  0  0  0  0  0  0  0  0  0
    1.9286    0.0443    0.0000 C   0  0  0  0  0  0  0  0  0  0  0  0
    0.4308   -0.0368    0.0000 C   0  0  0  0  0  0  0  0  0  0  0  0
   -1.0029   -0.4779    0.0000 N   0  0  0  0  0  0  0  0  0  0  0  0
  1  2  2  0
  2  3  1  0
  3  4  2  0
  4  5  1  0
  5  6  1  0
  6  7  2  0
  7  8  1  0
  8  9  2  0
  8 10  1  0
 10 11  1  0
 11 12  2  0
 12 13  1  0
 13 14  1  0
 13 15  1  0
 15 16  1  0
 16 17  1  0
 17 18  1  0
 17 19  1  0
 19 20  1  0
 20 21  1  0
 21 22  1  0
 22 23  1  0
 23 24  1  0
 22 25  1  0
 25 26  2  0
 25 27  1  0
 27 28  2  0
 28 29  1  0
 29 30  2  0
 30 31  1  0
 31 32  2  0
 32 33  1  0
 31 34  1  0
 34 35  1  0
 34 36  1  0
 34 37  1  0
 15 38  1  0
 38 39  1  0
 39 40  3  0
  9  1  1  0
  4  9  1  0
 14 10  2  0
 18 15  1  0
 24 19  1  0
 32 27  1  0
M  END
>  <BrandName>  (290) 


>  <Applicants>  (290) 
Incyte Corporation

>  <CHEMBL_ID>  (290) 
CHEMBL3622820

>  <Canonical_Smiles>  (290) 
c1cnc-2[nH]cnc(c12)c3cnn(c3)C4(CN(C4)C5CCN(CC5)C(=O)c6ccnc(c6F)C(F)(F)F)CC#N

>  <Chirality>  (290) 
Achiral Molecule

>  <First_Approval>  (290) 
nan

>  <Phase>  (290) 
3.0

>  <SC_Patent>  (290) 
nan

>  <Synonyms>  (290) 
INCB-039110 | INCB-39110 | INCB039110 | ITACITINIB

>  <Withdrawn>  (290) 
{'', 'Study NCT02355431 in United States was Withdrawn during PHASE2 because Study withdrawn before enrolling first patient'}

>  <Indications>  (290) 
nan

>  <Type>  (290) 
nan

>  <targets_id>  (290) 
P23458

>  <Inchi>  (290) 
InChI=1S/C26H23F4N9O/c27-20-18(1-7-32-22(20)26(28,29)30)24(40)37-9-3-17(4-10-37)38-13-25(14-38,5-6-31)39-12-16(11-36-39)21-19-2-8-33-23(19)35-15-34-21/h1-2,7-8,11-12,15,17H,3-5,9-10,13-14H2,(H,33,34,35)

>  <stdInchikey>  (290) 
KTBSXLIQKWEBRB-UHFFFAOYSA-N

>  <csid>  (290) 
35033258

>  <Links>  (290) 
|http://www.chemspider.com/Chemical-Structure.35033258.html|https://www.ebi.ac.uk/chembldb/compound/inspect/CHEMBL3622820|https://pubchem.ncbi.nlm.nih.gov/compound/53380437|https://go.drugbank.com/drugs/DB12154|https://www.rcsb.org/ligand/S4R|https://www.ebi.ac.uk/pdbe-srv/pdbechem/chemicalCompound/show/S4R|https://www.guidetopharmacology.org/GRAC/LigandDisplayForward?8364|https://zinc15.docking.org/substances/ZINC000118795962|https://precision.fda.gov/uniisearch/srs/unii/19J3781LPM|https://www.bindingdb.org/bind/chemsearch/marvin/MolStructure.jsp?monomerid=246868

>  <LinkName>  (290) 
|ChemSpider|ChEMBL|PubChem|DrugBank|RCSB|PDBe|Guide to Pharmacology|ZINC|FDA SRS|BindingDB

>  <lig_pdb_ID>  (290) 
S4R

>  <pdb_IDs>  (290) 
8bxc

>  <indicationDB>  (290) 


>  <uniprotId>  (290) 


>  <indicationG2P>  (290) 
None

>  <MW>  (290) 
553.2

>  <HBA>  (290) 
8

>  <HBD>  (290) 
1

>  <NRB>  (290) 
5

>  <TPSA>  (290) 
119.6

>  <LogP>  (290) 
3.6

>  <RoF>  (290) 
1

>  <Melting point>  (290) 
nan

>  <Targets>  (290) 
JAK1

>  <Kinase families>  (290) 
Tyr

>  <FDA_approved>  (290) 


$$$$
Glumetinib
     RDKit          2D

 33 38  0  0  0  0  0  0  0  0999 V2000
   -9.5576    1.1752    0.0000 C   0  0  0  0  0  0  0  0  0  0  0  0
   -8.0638    1.0387    0.0000 N   0  0  0  0  0  0  0  0  0  0  0  0
   -7.2961   -0.2499    0.0000 C   0  0  0  0  0  0  0  0  0  0  0  0
   -5.8333    0.0819    0.0000 C   0  0  0  0  0  0  0  0  0  0  0  0
   -4.7050   -0.9065    0.0000 C   0  0  0  0  0  0  0  0  0  0  0  0
   -4.9968   -2.3778    0.0000 C   0  0  0  0  0  0  0  0  0  0  0  0
   -3.8685   -3.3662    0.0000 N   0  0  0  0  0  0  0  0  0  0  0  0
   -2.4484   -2.8832    0.0000 C   0  0  0  0  0  0  0  0  0  0  0  0
   -1.1392   -3.6154    0.0000 C   0  0  0  0  0  0  0  0  0  0  0  0
   -0.0383   -2.5966    0.0000 N   0  0  0  0  0  0  0  0  0  0  0  0
   -0.6670   -1.2348    0.0000 N   0  0  0  0  0  0  0  0  0  0  0  0
    0.0652    0.0744    0.0000 S   0  0  0  0  0  0  0  0  0  0  0  0
   -1.2440    0.8066    0.0000 O   0  0  0  0  0  0  0  0  0  0  0  0
    1.3743   -0.6578    0.0000 O   0  0  0  0  0  0  0  0  0  0  0  0
    0.7974    1.3835    0.0000 C   0  0  0  0  0  0  0  0  0  0  0  0
    0.1686    2.7454    0.0000 C   0  0  0  0  0  0  0  0  0  0  0  0
    1.2695    3.7642    0.0000 N   0  0  0  0  0  0  0  0  0  0  0  0
    2.5787    3.0320    0.0000 C   0  0  0  0  0  0  0  0  0  0  0  0
    3.9988    3.5150    0.0000 C   0  0  0  0  0  0  0  0  0  0  0  0
    5.1271    2.5266    0.0000 C   0  0  0  0  0  0  0  0  0  0  0  0
    4.8353    1.0552    0.0000 C   0  0  0  0  0  0  0  0  0  0  0  0
    5.9636    0.0668    0.0000 C   0  0  0  0  0  0  0  0  0  0  0  0
    7.4264    0.3987    0.0000 C   0  0  0  0  0  0  0  0  0  0  0  0
    8.1941   -0.8900    0.0000 N   0  0  0  0  0  0  0  0  0  0  0  0
    7.2057   -2.0183    0.0000 N   0  0  0  0  0  0  0  0  0  0  0  0
    7.5376   -3.4811    0.0000 C   0  0  0  0  0  0  0  0  0  0  0  0
    5.8272   -1.4269    0.0000 C   0  0  0  0  0  0  0  0  0  0  0  0
    3.4152    0.5723    0.0000 C   0  0  0  0  0  0  0  0  0  0  0  0
    2.2869    1.5607    0.0000 N   0  0  0  0  0  0  0  0  0  0  0  0
   -2.1565   -1.4119    0.0000 C   0  0  0  0  0  0  0  0  0  0  0  0
   -3.2849   -0.4235    0.0000 C   0  0  0  0  0  0  0  0  0  0  0  0
   -5.6969    1.5757    0.0000 C   0  0  0  0  0  0  0  0  0  0  0  0
   -7.0754    2.1671    0.0000 N   0  0  0  0  0  0  0  0  0  0  0  0
  1  2  1  0
  2  3  1  0
  3  4  2  0
  4  5  1  0
  5  6  2  0
  6  7  1  0
  7  8  2  0
  8  9  1  0
  9 10  2  0
 10 11  1  0
 11 12  1  0
 12 13  2  0
 12 14  2  0
 12 15  1  0
 15 16  2  0
 16 17  1  0
 17 18  2  0
 18 19  1  0
 19 20  2  0
 20 21  1  0
 21 22  1  0
 22 23  1  0
 23 24  2  0
 24 25  1  0
 25 26  1  0
 25 27  1  0
 21 28  2  0
 28 29  1  0
 11 30  1  0
 30 31  2  0
  4 32  1  0
 32 33  2  0
 33  2  1  0
 31  5  1  0
 30  8  1  0
 29 15  1  0
 29 18  1  0
 27 22  2  0
M  END
>  <BrandName>  (291) 


>  <Applicants>  (291) 
HaiHe Phaemaceutical

>  <CHEMBL_ID>  (291) 
nan

>  <Canonical_Smiles>  (291) 
Cn1cc(-c2cnc3cnn(S(=O)(=O)c4cnc5ccc(-c6cnn(C)c6)cn45)c3c2)cn1

>  <Chirality>  (291) 
nan

>  <First_Approval>  (291) 
nan

>  <Phase>  (291) 
3.0

>  <SC_Patent>  (291) 
nan

>  <Synonyms>  (291) 
GLUMETINIB | GUMARONTINIB | SC-C244 | SCC244

>  <Withdrawn>  (291) 
{''}

>  <Indications>  (291) 
nan

>  <Type>  (291) 
nan

>  <targets_id>  (291) 
nan

>  <Inchi>  (291) 
InChI=1S/C21H17N9O2S/c1-27-11-16(7-24-27)14-3-4-20-23-10-21(29(20)13-14)33(31,32)30-19-5-15(6-22-18(19)9-26-30)17-8-25-28(2)12-17/h3-13H,1-2H3

>  <stdInchikey>  (291) 
RYBLECYFLJXEJX-UHFFFAOYSA-N

>  <csid>  (291) 
68006902

>  <Links>  (291) 
|http://www.chemspider.com/Chemical-Structure.68006902.html|https://www.ebi.ac.uk/chembldb/compound/inspect/CHEMBL4594400|https://pubchem.ncbi.nlm.nih.gov/compound/117797905|https://go.drugbank.com/drugs/DB15630|https://precision.fda.gov/uniisearch/srs/unii/7JTT036WGX

>  <LinkName>  (291) 
|ChemSpider|ChEMBL|PubChem|DrugBank|FDA SRS

>  <lig_pdb_ID>  (291) 


>  <pdb_IDs>  (291) 


>  <indicationDB>  (291) 


>  <uniprotId>  (291) 


>  <indicationG2P>  (291) 


>  <MW>  (291) 
459.1

>  <HBA>  (291) 
11

>  <HBD>  (291) 
0

>  <NRB>  (291) 
4

>  <TPSA>  (291) 
117.8

>  <LogP>  (291) 
2.1

>  <RoF>  (291) 
1

>  <Melting point>  (291) 
nan

>  <Targets>  (291) 
nan

>  <Kinase families>  (291) 


>  <FDA_approved>  (291) 


$$$$
Linifanib
     RDKit          2D

 28 31  0  0  0  0  0  0  0  0999 V2000
   -9.0600   -0.0141    0.0000 C   0  0  0  0  0  0  0  0  0  0  0  0
   -7.6038    0.3459    0.0000 C   0  0  0  0  0  0  0  0  0  0  0  0
   -7.1875    1.7869    0.0000 C   0  0  0  0  0  0  0  0  0  0  0  0
   -5.7313    2.1469    0.0000 C   0  0  0  0  0  0  0  0  0  0  0  0
   -4.6915    1.0659    0.0000 C   0  0  0  0  0  0  0  0  0  0  0  0
   -5.1078   -0.3752    0.0000 C   0  0  0  0  0  0  0  0  0  0  0  0
   -6.5640   -0.7352    0.0000 C   0  0  0  0  0  0  0  0  0  0  0  0
   -4.0680   -1.4563    0.0000 N   0  0  0  0  0  0  0  0  0  0  0  0
   -2.6118   -1.0963    0.0000 C   0  0  0  0  0  0  0  0  0  0  0  0
   -2.1955    0.3448    0.0000 O   0  0  0  0  0  0  0  0  0  0  0  0
   -1.5720   -2.1774    0.0000 N   0  0  0  0  0  0  0  0  0  0  0  0
   -0.1158   -1.8174    0.0000 C   0  0  0  0  0  0  0  0  0  0  0  0
    0.9241   -2.8984    0.0000 C   0  0  0  0  0  0  0  0  0  0  0  0
    2.3802   -2.5384    0.0000 C   0  0  0  0  0  0  0  0  0  0  0  0
    2.7965   -1.0974    0.0000 C   0  0  0  0  0  0  0  0  0  0  0  0
    1.7567   -0.0163    0.0000 C   0  0  0  0  0  0  0  0  0  0  0  0
    0.3005   -0.3763    0.0000 C   0  0  0  0  0  0  0  0  0  0  0  0
    4.2527   -0.7374    0.0000 C   0  0  0  0  0  0  0  0  0  0  0  0
    5.2925   -1.8184    0.0000 C   0  0  0  0  0  0  0  0  0  0  0  0
    6.7487   -1.4585    0.0000 C   0  0  0  0  0  0  0  0  0  0  0  0
    7.1650   -0.0174    0.0000 C   0  0  0  0  0  0  0  0  0  0  0  0
    6.1252    1.0637    0.0000 C   0  0  0  0  0  0  0  0  0  0  0  0
    4.6690    0.7037    0.0000 C   0  0  0  0  0  0  0  0  0  0  0  0
    3.8767    1.9773    0.0000 C   0  0  0  0  0  0  0  0  0  0  0  0
    4.8431    3.1245    0.0000 N   0  0  0  0  0  0  0  0  0  0  0  0
    6.2328    2.5598    0.0000 N   0  0  0  0  0  0  0  0  0  0  0  0
    2.3805    2.0849    0.0000 N   0  0  0  0  0  0  0  0  0  0  0  0
   -3.2353    1.4259    0.0000 F   0  0  0  0  0  0  0  0  0  0  0  0
  1  2  1  0
  2  3  2  0
  3  4  1  0
  4  5  2  0
  5  6  1  0
  6  7  2  0
  6  8  1  0
  8  9  1  0
  9 10  2  0
  9 11  1  0
 11 12  1  0
 12 13  2  0
 13 14  1  0
 14 15  2  0
 15 16  1  0
 16 17  2  0
 15 18  1  0
 18 19  2  0
 19 20  1  0
 20 21  2  0
 21 22  1  0
 22 23  2  0
 23 24  1  0
 24 25  2  0
 25 26  1  0
 24 27  1  0
  5 28  1  0
  7  2  1  0
 17 12  1  0
 23 18  1  0
 26 22  1  0
M  END
>  <BrandName>  (292) 


>  <Applicants>  (292) 
Abbott Laboratories

>  <CHEMBL_ID>  (292) 
CHEMBL223360

>  <Canonical_Smiles>  (292) 
Cc1ccc(c(c1)NC(=O)Nc2ccc(cc2)c3cccc4c3c(n[nH]4)N)F

>  <Chirality>  (292) 
Achiral Molecule

>  <First_Approval>  (292) 
nan

>  <Phase>  (292) 
3.0

>  <SC_Patent>  (292) 
nan

>  <Synonyms>  (292) 
A-741439 | ABT-869 | AL-39324 | LINIFANIB | RG-3635

>  <Withdrawn>  (292) 
{''}

>  <Indications>  (292) 
nan

>  <Type>  (292) 
nan

>  <targets_id>  (292) 
P36888|P07333|P35968

>  <Inchi>  (292) 
InChI=1S/C21H18FN5O/c1-12-5-10-16(22)18(11-12)25-21(28)24-14-8-6-13(7-9-14)15-3-2-4-17-19(15)20(23)27-26-17/h2-11H,1H3,(H3,23,26,27)(H2,24,25,28)

>  <stdInchikey>  (292) 
MPVGZUGXCQEXTM-UHFFFAOYSA-N

>  <csid>  (292) 
9660475

>  <Links>  (292) 
|http://www.chemspider.com/Chemical-Structure.9660475.html|https://www.ebi.ac.uk/chembldb/compound/inspect/CHEMBL223360|https://pubchem.ncbi.nlm.nih.gov/compound/11485656|https://go.drugbank.com/drugs/DB06080|https://www.guidetopharmacology.org/GRAC/LigandDisplayForward?5657|https://zinc15.docking.org/substances/ZINC000006718813|https://precision.fda.gov/uniisearch/srs/unii/CO93X137CW|https://www.bindingdb.org/bind/chemsearch/marvin/MolStructure.jsp?monomerid=21079

>  <LinkName>  (292) 
|ChemSpider|ChEMBL|PubChem|DrugBank|Guide to Pharmacology|ZINC|FDA SRS|BindingDB

>  <lig_pdb_ID>  (292) 


>  <pdb_IDs>  (292) 


>  <indicationDB>  (292) 


>  <uniprotId>  (292) 


>  <indicationG2P>  (292) 
None

>  <MW>  (292) 
375.1

>  <HBA>  (292) 
3

>  <HBD>  (292) 
4

>  <NRB>  (292) 
3

>  <TPSA>  (292) 
95.8

>  <LogP>  (292) 
4.9

>  <RoF>  (292) 
0

>  <Melting point>  (292) 
nan

>  <Targets>  (292) 
FLT3; CSF1R; KDR

>  <Kinase families>  (292) 
Tyr

>  <FDA_approved>  (292) 


$$$$
Abivertinib
     RDKit          2D

 36 40  0  0  0  0  0  0  0  0999 V2000
    7.7865    2.2220    0.0000 C   0  0  0  0  0  0  0  0  0  0  0  0
    6.2937    2.3694    0.0000 N   0  0  0  0  0  0  0  0  0  0  0  0
    5.4197    1.1504    0.0000 C   0  0  0  0  0  0  0  0  0  0  0  0
    3.9270    1.2978    0.0000 C   0  0  0  0  0  0  0  0  0  0  0  0
    3.3083    2.6643    0.0000 N   0  0  0  0  0  0  0  0  0  0  0  0
    4.1823    3.8833    0.0000 C   0  0  0  0  0  0  0  0  0  0  0  0
    5.6750    3.7359    0.0000 C   0  0  0  0  0  0  0  0  0  0  0  0
    1.8155    2.8117    0.0000 C   0  0  0  0  0  0  0  0  0  0  0  0
    1.1968    4.1781    0.0000 C   0  0  0  0  0  0  0  0  0  0  0  0
   -0.2959    4.3255    0.0000 C   0  0  0  0  0  0  0  0  0  0  0  0
   -1.1700    3.1065    0.0000 C   0  0  0  0  0  0  0  0  0  0  0  0
   -0.5513    1.7400    0.0000 C   0  0  0  0  0  0  0  0  0  0  0  0
    0.9415    1.5926    0.0000 C   0  0  0  0  0  0  0  0  0  0  0  0
    1.5602    0.2262    0.0000 F   0  0  0  0  0  0  0  0  0  0  0  0
   -2.6627    3.2539    0.0000 N   0  0  0  0  0  0  0  0  0  0  0  0
   -3.5367    2.0349    0.0000 C   0  0  0  0  0  0  0  0  0  0  0  0
   -5.0295    2.1823    0.0000 N   0  0  0  0  0  0  0  0  0  0  0  0
   -5.9035    0.9632    0.0000 C   0  0  0  0  0  0  0  0  0  0  0  0
   -5.2848   -0.4032    0.0000 C   0  0  0  0  0  0  0  0  0  0  0  0
   -6.3932   -1.4139    0.0000 C   0  0  0  0  0  0  0  0  0  0  0  0
   -7.6969   -0.6721    0.0000 C   0  0  0  0  0  0  0  0  0  0  0  0
   -7.3943    0.7971    0.0000 N   0  0  0  0  0  0  0  0  0  0  0  0
   -3.7921   -0.5506    0.0000 C   0  0  0  0  0  0  0  0  0  0  0  0
   -2.9180    0.6684    0.0000 N   0  0  0  0  0  0  0  0  0  0  0  0
   -3.1733   -1.9171    0.0000 O   0  0  0  0  0  0  0  0  0  0  0  0
   -1.6806   -2.0645    0.0000 C   0  0  0  0  0  0  0  0  0  0  0  0
   -0.8066   -0.8455    0.0000 C   0  0  0  0  0  0  0  0  0  0  0  0
    0.6862   -0.9929    0.0000 C   0  0  0  0  0  0  0  0  0  0  0  0
    1.3049   -2.3593    0.0000 C   0  0  0  0  0  0  0  0  0  0  0  0
    0.4308   -3.5784    0.0000 C   0  0  0  0  0  0  0  0  0  0  0  0
   -1.0619   -3.4310    0.0000 C   0  0  0  0  0  0  0  0  0  0  0  0
    1.0495   -4.9448    0.0000 N   0  0  0  0  0  0  0  0  0  0  0  0
    2.5423   -5.0922    0.0000 C   0  0  0  0  0  0  0  0  0  0  0  0
    3.4163   -3.8732    0.0000 O   0  0  0  0  0  0  0  0  0  0  0  0
    3.1610   -6.4587    0.0000 C   0  0  0  0  0  0  0  0  0  0  0  0
    4.6537   -6.6061    0.0000 C   0  0  0  0  0  0  0  0  0  0  0  0
  1  2  1  0
  2  3  1  0
  3  4  1  0
  4  5  1  0
  5  6  1  0
  6  7  1  0
  5  8  1  0
  8  9  2  0
  9 10  1  0
 10 11  2  0
 11 12  1  0
 12 13  2  0
 13 14  1  0
 11 15  1  0
 15 16  1  0
 16 17  2  0
 17 18  1  0
 18 19  2  0
 19 20  1  0
 20 21  2  0
 21 22  1  0
 19 23  1  0
 23 24  2  0
 23 25  1  0
 25 26  1  0
 26 27  2  0
 27 28  1  0
 28 29  2  0
 29 30  1  0
 30 31  2  0
 30 32  1  0
 32 33  1  0
 33 34  2  0
 33 35  1  0
 35 36  2  0
  7  2  1  0
 13  8  1  0
 24 16  1  0
 22 18  1  0
 31 26  1  0
M  END
>  <BrandName>  (293) 


>  <Applicants>  (293) 
ACEA Biosciences

>  <CHEMBL_ID>  (293) 
CHEMBL4297865

>  <Canonical_Smiles>  (293) 
CN1CCN(CC1)c2ccc(cc2F)Nc3nc4c(cc[nH]4)c(n3)Oc5cccc(c5)NC(=O)C=C

>  <Chirality>  (293) 
Achiral Molecule

>  <First_Approval>  (293) 
nan

>  <Phase>  (293) 
3.0

>  <SC_Patent>  (293) 
nan

>  <Synonyms>  (293) 
A610 | ABIVERTINIB | AC-0010 | AC0010 | ACEA100610 | AVITINIB | EX-ACEA0010

>  <Withdrawn>  (293) 
{''}

>  <Indications>  (293) 
AC0010 is an orally active, irreversible EGFR inhibitor that selectively targets mutated EGFRs, and was designed to overcome T790M-induced resistance in tumours [<a href='javascript:callRef("ReferenceDisplayForward?referenceId=35960&displayId=2", 960, 600)' title="2. Xu X, Mao L, Xu W, Tang W, Zhang X, Xi B, Xu R, Fang X, Liu J, Fang C et al.. (2016) Mol. Cancer Ther. 15 (11): 2586-2597">2</a>]. It may also inhibit BTK, thus offering extended clinical utility [<a href='javascript:callRef("ReferenceDisplayForward?referenceId=35961&displayId=3", 960, 600)' title="3. Yan X, Zhou Y, Huang S, Li X, Yu M, Huang J, Wang J, Ma Z, Jin J, Pan J et al.. (2018) J. Cancer Res. Clin. Oncol. 144 (4): 697-706">3</a>]. We show the structure for the free base form of the compound.

>  <Type>  (293) 
nan

>  <targets_id>  (293) 
nan

>  <Inchi>  (293) 
InChI=1S/C26H26FN7O2/c1-3-23(35)29-17-5-4-6-19(15-17)36-25-20-9-10-28-24(20)31-26(32-25)30-18-7-8-22(21(27)16-18)34-13-11-33(2)12-14-34/h3-10,15-16H,1,11-14H2,2H3,(H,29,35)(H2,28,30,31,32)

>  <stdInchikey>  (293) 
UOFYSRZSLXWIQB-UHFFFAOYSA-N

>  <csid>  (293) 
57490375

>  <Links>  (293) 
|http://www.chemspider.com/Chemical-Structure.57490375.html|https://www.ebi.ac.uk/chembldb/compound/inspect/CHEMBL4297865|https://pubchem.ncbi.nlm.nih.gov/compound/72734520|https://go.drugbank.com/drugs/DB15327|https://www.rcsb.org/ligand/YKQ|https://www.ebi.ac.uk/pdbe-srv/pdbechem/chemicalCompound/show/YKQ|https://www.guidetopharmacology.org/GRAC/LigandDisplayForward?10044|https://zinc15.docking.org/substances/ZINC000142081723|https://precision.fda.gov/uniisearch/srs/unii/CER0OPG92L|https://www.bindingdb.org/bind/chemsearch/marvin/MolStructure.jsp?monomerid=294480

>  <LinkName>  (293) 
|ChemSpider|ChEMBL|PubChem|DrugBank|RCSB|PDBe|Guide to Pharmacology|ZINC|FDA SRS|BindingDB

>  <lig_pdb_ID>  (293) 
YKQ

>  <pdb_IDs>  (293) 
8r7e 8r7v

>  <indicationDB>  (293) 


>  <uniprotId>  (293) 


>  <indicationG2P>  (293) 
None

>  <MW>  (293) 
487.2

>  <HBA>  (293) 
7

>  <HBD>  (293) 
3

>  <NRB>  (293) 
7

>  <TPSA>  (293) 
98.4

>  <LogP>  (293) 
4.5

>  <RoF>  (293) 
0

>  <Melting point>  (293) 
nan

>  <Targets>  (293) 
nan

>  <Kinase families>  (293) 


>  <FDA_approved>  (293) 


$$$$
Firmonertinib
     RDKit          2D

 41 44  0  0  0  0  0  0  0  0999 V2000
    0.1353   -5.8390    0.0000 C   0  0  0  0  0  0  0  0  0  0  0  0
   -0.5570   -4.5084    0.0000 C   0  0  0  0  0  0  0  0  0  0  0  0
    0.2491   -3.2434    0.0000 C   0  0  0  0  0  0  0  0  0  0  0  0
    1.3276   -3.4241    0.0000 O   0  0  0  0  0  0  0  0  0  0  0  0
   -0.4432   -1.9128    0.0000 N   0  0  0  0  0  0  0  0  0  0  0  0
    0.3629   -0.6478    0.0000 C   0  0  0  0  0  0  0  0  0  0  0  0
   -0.3294    0.6828    0.0000 C   0  0  0  0  0  0  0  0  0  0  0  0
    0.4767    1.9477    0.0000 C   0  0  0  0  0  0  0  0  0  0  0  0
   -0.2156    3.2784    0.0000 N   0  0  0  0  0  0  0  0  0  0  0  0
   -1.7142    3.3441    0.0000 C   0  0  0  0  0  0  0  0  0  0  0  0
   -2.4066    4.6747    0.0000 N   0  0  0  0  0  0  0  0  0  0  0  0
   -3.9051    4.7404    0.0000 C   0  0  0  0  0  0  0  0  0  0  0  0
   -4.7113    3.4755    0.0000 C   0  0  0  0  0  0  0  0  0  0  0  0
   -4.0189    2.1448    0.0000 C   0  0  0  0  0  0  0  0  0  0  0  0
   -4.8251    0.8799    0.0000 C   0  0  0  0  0  0  0  0  0  0  0  0
   -6.3223    0.7886    0.0000 C   0  0  0  0  0  0  0  0  0  0  0  0
   -6.6982   -0.6635    0.0000 N   0  0  0  0  0  0  0  0  0  0  0  0
   -8.0939   -1.2130    0.0000 C   0  0  0  0  0  0  0  0  0  0  0  0
   -5.4332   -1.4697    0.0000 C   0  0  0  0  0  0  0  0  0  0  0  0
   -5.1859   -2.9492    0.0000 C   0  0  0  0  0  0  0  0  0  0  0  0
   -3.7810   -3.4748    0.0000 C   0  0  0  0  0  0  0  0  0  0  0  0
   -2.6234   -2.5209    0.0000 C   0  0  0  0  0  0  0  0  0  0  0  0
   -2.8707   -1.0414    0.0000 C   0  0  0  0  0  0  0  0  0  0  0  0
   -4.2756   -0.5158    0.0000 C   0  0  0  0  0  0  0  0  0  0  0  0
   -2.5204    2.0791    0.0000 N   0  0  0  0  0  0  0  0  0  0  0  0
    1.9753    1.8820    0.0000 C   0  0  0  0  0  0  0  0  0  0  0  0
    2.7815    3.1470    0.0000 O   0  0  0  0  0  0  0  0  0  0  0  0
    4.2800    3.0813    0.0000 C   0  0  0  0  0  0  0  0  0  0  0  0
    5.0862    4.3462    0.0000 C   0  0  0  0  0  0  0  0  0  0  0  0
    5.8924    5.6112    0.0000 F   0  0  0  0  0  0  0  0  0  0  0  0
    6.3512    3.5400    0.0000 F   0  0  0  0  0  0  0  0  0  0  0  0
    3.8213    5.1524    0.0000 F   0  0  0  0  0  0  0  0  0  0  0  0
    2.6677    0.5514    0.0000 N   0  0  0  0  0  0  0  0  0  0  0  0
    1.8615   -0.7135    0.0000 C   0  0  0  0  0  0  0  0  0  0  0  0
    2.5539   -2.0442    0.0000 N   0  0  0  0  0  0  0  0  0  0  0  0
    2.0830   -3.0311    0.0000 C   0  0  0  0  0  0  0  0  0  0  0  0
    4.0524   -2.1099    0.0000 C   0  0  0  0  0  0  0  0  0  0  0  0
    4.7448   -3.4405    0.0000 C   0  0  0  0  0  0  0  0  0  0  0  0
    6.2434   -3.5062    0.0000 N   0  0  0  0  0  0  0  0  0  0  0  0
    6.9358   -4.8369    0.0000 C   0  0  0  0  0  0  0  0  0  0  0  0
    7.0496   -2.2413    0.0000 C   0  0  0  0  0  0  0  0  0  0  0  0
  1  2  2  0
  2  3  1  0
  3  4  2  0
  3  5  1  0
  5  6  1  0
  6  7  2  0
  7  8  1  0
  8  9  1  0
  9 10  1  0
 10 11  2  0
 11 12  1  0
 12 13  2  0
 13 14  1  0
 14 15  1  0
 15 16  2  0
 16 17  1  0
 17 18  1  0
 17 19  1  0
 19 20  2  0
 20 21  1  0
 21 22  2  0
 22 23  1  0
 23 24  2  0
 14 25  2  0
  8 26  2  0
 26 27  1  0
 27 28  1  0
 28 29  1  0
 29 30  1  0
 29 31  1  0
 29 32  1  0
 26 33  1  0
 33 34  2  0
 34 35  1  0
 35 36  1  0
 35 37  1  0
 37 38  1  0
 38 39  1  0
 39 40  1  0
 39 41  1  0
 34  6  1  0
 25 10  1  0
 24 15  1  0
 24 19  1  0
M  END
>  <BrandName>  (294) 


>  <Applicants>  (294) 
('Allist Pharmaceuticals',)

>  <CHEMBL_ID>  (294) 
CHEMBL4297258

>  <Canonical_Smiles>  (294) 
C=CC(=O)Nc1cc(Nc2nccc(-c3cn(C)c4ccccc34)n2)c(OCC(F)(F)F)nc1N(C)CCN(C)C

>  <Chirality>  (294) 
Achiral Molecule

>  <First_Approval>  (294) 
nan

>  <Phase>  (294) 
3.0

>  <SC_Patent>  (294) 
nan

>  <Synonyms>  (294) 
|AST2818|AST-2818

>  <Withdrawn>  (294) 
nan

>  <Indications>  (294) 
nan

>  <Type>  (294) 
nan

>  <targets_id>  (294) 
nan

>  <Inchi>  (294) 
InChI=1S/C28H31F3N8O2/c1-6-24(40)33-21-15-22(26(41-17-28(29,30)31)36-25(21)38(4)14-13-37(2)3)35-27-32-12-11-20(34-27)19-16-39(5)23-10-8-7-9-18(19)23/h6-12,15-16H,1,13-14,17H2,2-5H3,(H,33,40)(H,32,34,35)

>  <stdInchikey>  (294) 
GHKOONMJXNWOIW-UHFFFAOYSA-N

>  <csid>  (294) 
nan

>  <Links>  (294) 
|http://www.chemspider.com/Chemical-Structure.nan.html

>  <LinkName>  (294) 
|ChemSpider

>  <lig_pdb_ID>  (294) 


>  <pdb_IDs>  (294) 


>  <indicationDB>  (294) 


>  <uniprotId>  (294) 


>  <indicationG2P>  (294) 


>  <MW>  (294) 
568.3

>  <HBA>  (294) 
9

>  <HBD>  (294) 
2

>  <NRB>  (294) 
11

>  <TPSA>  (294) 
100.4

>  <LogP>  (294) 
4.8

>  <RoF>  (294) 
1

>  <Melting point>  (294) 
nan

>  <Targets>  (294) 
nan

>  <Kinase families>  (294) 


>  <FDA_approved>  (294) 


$$$$
Ivarmacitinib
     RDKit          2D

 29 33  0  0  0  0  0  0  0  0999 V2000
    4.6834    3.2018    0.0000 C   0  0  0  0  0  0  0  0  0  0  0  0
    4.2643    1.7615    0.0000 N   0  0  0  0  0  0  0  0  0  0  0  0
    2.8074    1.4044    0.0000 C   0  0  0  0  0  0  0  0  0  0  0  0
    2.2400    0.0159    0.0000 C   0  0  0  0  0  0  0  0  0  0  0  0
    0.7441    0.1264    0.0000 C   0  0  0  0  0  0  0  0  0  0  0  0
   -0.5311   -0.6634    0.0000 C   0  0  0  0  0  0  0  0  0  0  0  0
   -1.6764    0.3053    0.0000 N   0  0  0  0  0  0  0  0  0  0  0  0
   -1.1090    1.6938    0.0000 C   0  0  0  0  0  0  0  0  0  0  0  0
    0.3869    1.5833    0.0000 C   0  0  0  0  0  0  0  0  0  0  0  0
    1.6621    2.3731    0.0000 C   0  0  0  0  0  0  0  0  0  0  0  0
   -3.1332   -0.0519    0.0000 C   0  0  0  0  0  0  0  0  0  0  0  0
   -3.5524   -1.4921    0.0000 O   0  0  0  0  0  0  0  0  0  0  0  0
   -4.1710    1.0313    0.0000 N   0  0  0  0  0  0  0  0  0  0  0  0
   -5.6278    0.6741    0.0000 C   0  0  0  0  0  0  0  0  0  0  0  0
   -6.1952   -0.7144    0.0000 N   0  0  0  0  0  0  0  0  0  0  0  0
   -7.6911   -0.6039    0.0000 C   0  0  0  0  0  0  0  0  0  0  0  0
   -8.0483    0.8530    0.0000 N   0  0  0  0  0  0  0  0  0  0  0  0
   -6.7731    1.6428    0.0000 S   0  0  0  0  0  0  0  0  0  0  0  0
   -8.6599   -1.7491    0.0000 O   0  0  0  0  0  0  0  0  0  0  0  0
  -10.1360   -1.4828    0.0000 C   0  0  0  0  0  0  0  0  0  0  0  0
    5.3020    0.6784    0.0000 C   0  0  0  0  0  0  0  0  0  0  0  0
    6.7588    1.0356    0.0000 N   0  0  0  0  0  0  0  0  0  0  0  0
    7.7966   -0.0476    0.0000 C   0  0  0  0  0  0  0  0  0  0  0  0
    7.3774   -1.4878    0.0000 N   0  0  0  0  0  0  0  0  0  0  0  0
    5.9205   -1.8449    0.0000 C   0  0  0  0  0  0  0  0  0  0  0  0
    5.2111   -3.1666    0.0000 N   0  0  0  0  0  0  0  0  0  0  0  0
    3.7349   -2.9003    0.0000 C   0  0  0  0  0  0  0  0  0  0  0  0
    3.5321   -1.4141    0.0000 C   0  0  0  0  0  0  0  0  0  0  0  0
    4.8828   -0.7618    0.0000 C   0  0  0  0  0  0  0  0  0  0  0  0
  1  2  1  0
  2  3  1  0
  3  4  1  0
  5  4  1  6
  5  6  1  0
  6  7  1  0
  7  8  1  0
  9  8  1  6
  9 10  1  0
  7 11  1  0
 11 12  2  0
 11 13  1  0
 13 14  1  0
 14 15  2  0
 15 16  1  0
 16 17  2  0
 17 18  1  0
 16 19  1  0
 19 20  1  0
  2 21  1  0
 21 22  2  0
 22 23  1  0
 23 24  2  0
 24 25  1  0
 25 26  1  0
 26 27  1  0
 27 28  2  0
 28 29  1  0
 10  3  1  0
 18 14  1  0
 29 21  1  0
  9  5  1  0
 29 25  2  0
M  END
>  <BrandName>  (295) 


>  <Applicants>  (295) 
Jiangsu Hengrui Medicine

>  <CHEMBL_ID>  (295) 
CHEMBL5095398

>  <Canonical_Smiles>  (295) 
CN(C1C[C@@H]2CN(C[C@@H]2C1)C(=O)NC1=NC(=NS1)OC)C1=NC=NC2NC=CC=21

>  <Chirality>  (295) 
Single Stereoisomer

>  <First_Approval>  (295) 
nan

>  <Phase>  (295) 
3.0

>  <SC_Patent>  (295) 
nan

>  <Synonyms>  (295) 
|SHR0302 base|IVARMACITINIB

>  <Withdrawn>  (295) 
nan

>  <Indications>  (295) 
nan

>  <Type>  (295) 
nan

>  <targets_id>  (295) 
nan

>  <Inchi>  (295) 
InChI=1S/C18H22N8O2S/c1-25(15-13-3-4-19-14(13)20-9-21-15)12-5-10-7-26(8-11(10)6-12)18(27)23-17-22-16(28-2)24-29-17/h3-4,9-12H,5-8H2,1-2H3,(H,19,20,21)(H,22,23,24,27)/t10-,11+,12+

>  <stdInchikey>  (295) 
DNBCBAXDWNDRNO-FOSCPWQOSA-N

>  <csid>  (295) 
114935320

>  <Links>  (295) 
|http://www.chemspider.com/Chemical-Structure.114935320.html|https://pubchem.ncbi.nlm.nih.gov/compound/71622431

>  <LinkName>  (295) 
|ChemSpider|PubChem

>  <lig_pdb_ID>  (295) 


>  <pdb_IDs>  (295) 


>  <indicationDB>  (295) 


>  <uniprotId>  (295) 


>  <indicationG2P>  (295) 


>  <MW>  (295) 
414.2

>  <HBA>  (295) 
8

>  <HBD>  (295) 
2

>  <NRB>  (295) 
4

>  <TPSA>  (295) 
112.2

>  <LogP>  (295) 
2.2

>  <RoF>  (295) 
0

>  <Melting point>  (295) 
nan

>  <Targets>  (295) 
nan

>  <Kinase families>  (295) 


>  <FDA_approved>  (295) 


$$$$
Vimseltinib
     RDKit          2D

 32 35  0  0  0  0  0  0  0  0999 V2000
    0.2920   -4.8053    0.0000 C   0  0  0  0  0  0  0  0  0  0  0  0
    0.1347   -3.3136    0.0000 C   0  0  0  0  0  0  0  0  0  0  0  0
   -1.2358   -2.7039    0.0000 N   0  0  0  0  0  0  0  0  0  0  0  0
   -1.3930   -1.2121    0.0000 C   0  0  0  0  0  0  0  0  0  0  0  0
   -2.7635   -0.6024    0.0000 C   0  0  0  0  0  0  0  0  0  0  0  0
   -2.9208    0.8893    0.0000 C   0  0  0  0  0  0  0  0  0  0  0  0
   -4.2913    1.4990    0.0000 N   0  0  0  0  0  0  0  0  0  0  0  0
   -5.5045    0.6170    0.0000 C   0  0  0  0  0  0  0  0  0  0  0  0
   -6.8750    1.2267    0.0000 N   0  0  0  0  0  0  0  0  0  0  0  0
   -7.0323    2.7184    0.0000 C   0  0  0  0  0  0  0  0  0  0  0  0
   -8.4028    3.3281    0.0000 C   0  0  0  0  0  0  0  0  0  0  0  0
   -5.8190    3.6004    0.0000 C   0  0  0  0  0  0  0  0  0  0  0  0
   -5.3473   -0.8748    0.0000 N   0  0  0  0  0  0  0  0  0  0  0  0
   -6.5605   -1.7568    0.0000 C   0  0  0  0  0  0  0  0  0  0  0  0
   -3.9768   -1.4845    0.0000 C   0  0  0  0  0  0  0  0  0  0  0  0
   -3.8195   -2.9762    0.0000 O   0  0  0  0  0  0  0  0  0  0  0  0
   -0.1798   -0.3301    0.0000 C   0  0  0  0  0  0  0  0  0  0  0  0
    1.1907   -0.9398    0.0000 C   0  0  0  0  0  0  0  0  0  0  0  0
    1.3480   -2.4315    0.0000 C   0  0  0  0  0  0  0  0  0  0  0  0
    2.7185   -3.0412    0.0000 O   0  0  0  0  0  0  0  0  0  0  0  0
    3.9317   -2.1592    0.0000 C   0  0  0  0  0  0  0  0  0  0  0  0
    5.3022   -2.7689    0.0000 C   0  0  0  0  0  0  0  0  0  0  0  0
    6.5155   -1.8868    0.0000 C   0  0  0  0  0  0  0  0  0  0  0  0
    6.3583   -0.3951    0.0000 N   0  0  0  0  0  0  0  0  0  0  0  0
    4.9878    0.2146    0.0000 C   0  0  0  0  0  0  0  0  0  0  0  0
    4.8305    1.7063    0.0000 C   0  0  0  0  0  0  0  0  0  0  0  0
    3.5313    2.4559    0.0000 C   0  0  0  0  0  0  0  0  0  0  0  0
    3.8427    3.9233    0.0000 N   0  0  0  0  0  0  0  0  0  0  0  0
    5.3344    4.0805    0.0000 N   0  0  0  0  0  0  0  0  0  0  0  0
    6.0840    5.3798    0.0000 C   0  0  0  0  0  0  0  0  0  0  0  0
    5.9449    2.7104    0.0000 C   0  0  0  0  0  0  0  0  0  0  0  0
    3.7745   -0.6674    0.0000 C   0  0  0  0  0  0  0  0  0  0  0  0
  1  2  1  0
  2  3  2  0
  3  4  1  0
  4  5  1  0
  5  6  2  0
  6  7  1  0
  7  8  2  0
  8  9  1  0
  9 10  1  0
 10 11  1  0
 10 12  1  0
  8 13  1  0
 13 14  1  0
 13 15  1  0
 15 16  2  0
  4 17  2  0
 17 18  1  0
 18 19  2  0
 19 20  1  0
 20 21  1  0
 21 22  2  0
 22 23  1  0
 23 24  2  0
 24 25  1  0
 25 26  1  0
 26 27  1  0
 27 28  2  0
 28 29  1  0
 29 30  1  0
 29 31  1  0
 25 32  2  0
 19  2  1  0
 32 21  1  0
 15  5  1  0
 31 26  2  0
M  END
>  <BrandName>  (296) 


>  <Applicants>  (296) 
Deciphera Pharmaceuticals

>  <CHEMBL_ID>  (296) 
CHEMBL5095202

>  <Canonical_Smiles>  (296) 
Cc1nc(-c2cnc(NC(C)C)n(C)c2=O)ccc1Oc1ccnc(-c2cnn(C)c2)c1

>  <Chirality>  (296) 
Achiral Molecule

>  <First_Approval>  (296) 
nan

>  <Phase>  (296) 
3.0

>  <SC_Patent>  (296) 
nan

>  <Synonyms>  (296) 
DCC-3014 | DP-6865 | VIMSELTINIB

>  <Withdrawn>  (296) 
nan

>  <Indications>  (296) 
nan

>  <Type>  (296) 
nan

>  <targets_id>  (296) 
nan

>  <Inchi>  (296) 
InChI=1S/C23H25N7O2/c1-14(2)27-23-25-12-18(22(31)30(23)5)19-6-7-21(15(3)28-19)32-17-8-9-24-20(10-17)16-11-26-29(4)13-16/h6-14H,1-5H3,(H,25,27)

>  <stdInchikey>  (296) 
TVGAHWWPABTBCX-UHFFFAOYSA-N

>  <csid>  (296) 
95499700

>  <Links>  (296) 
|http://www.chemspider.com/Chemical-Structure.95499700.html|https://www.ebi.ac.uk/chembldb/compound/inspect/CHEMBL5095202|https://pubchem.ncbi.nlm.nih.gov/compound/86267612|https://go.drugbank.com/drugs/DB17520|https://www.rcsb.org/ligand/Z6V|https://www.ebi.ac.uk/pdbe-srv/pdbechem/chemicalCompound/show/Z6V|https://www.guidetopharmacology.org/GRAC/LigandDisplayForward?11190|https://precision.fda.gov/uniisearch/srs/unii/PX9FTM69BF

>  <LinkName>  (296) 
|ChemSpider|ChEMBL|PubChem|DrugBank|RCSB|PDBe|Guide to Pharmacology|FDA SRS

>  <lig_pdb_ID>  (296) 
Z6V

>  <pdb_IDs>  (296) 
7mfc

>  <indicationDB>  (296) 


>  <uniprotId>  (296) 


>  <indicationG2P>  (296) 
None

>  <MW>  (296) 
431.2

>  <HBA>  (296) 
9

>  <HBD>  (296) 
1

>  <NRB>  (296) 
6

>  <TPSA>  (296) 
99.8

>  <LogP>  (296) 
3.6

>  <RoF>  (296) 
0

>  <Melting point>  (296) 
nan

>  <Targets>  (296) 
nan

>  <Kinase families>  (296) 


>  <FDA_approved>  (296) 


$$$$
Ibcasertib
     RDKit          2D

 33 37  0  0  0  0  0  0  0  0999 V2000
  -10.3460    0.5306    0.0000 C   0  0  0  0  0  0  0  0  0  0  0  0
   -9.4966   -0.7058    0.0000 O   0  0  0  0  0  0  0  0  0  0  0  0
   -8.0012   -0.5884    0.0000 C   0  0  0  0  0  0  0  0  0  0  0  0
   -7.3551    0.7653    0.0000 C   0  0  0  0  0  0  0  0  0  0  0  0
   -5.8597    0.8827    0.0000 C   0  0  0  0  0  0  0  0  0  0  0  0
   -5.0104   -0.3537    0.0000 C   0  0  0  0  0  0  0  0  0  0  0  0
   -3.5150   -0.2364    0.0000 C   0  0  0  0  0  0  0  0  0  0  0  0
   -2.8689    1.1174    0.0000 O   0  0  0  0  0  0  0  0  0  0  0  0
   -1.3735    1.2347    0.0000 C   0  0  0  0  0  0  0  0  0  0  0  0
   -0.5242   -0.0017    0.0000 C   0  0  0  0  0  0  0  0  0  0  0  0
    0.9712    0.1157    0.0000 C   0  0  0  0  0  0  0  0  0  0  0  0
    1.6173    1.4694    0.0000 C   0  0  0  0  0  0  0  0  0  0  0  0
    3.1127    1.5868    0.0000 C   0  0  0  0  0  0  0  0  0  0  0  0
    3.9620    0.3504    0.0000 C   0  0  0  0  0  0  0  0  0  0  0  0
    3.3159   -1.0033    0.0000 O   0  0  0  0  0  0  0  0  0  0  0  0
    5.4574    0.4678    0.0000 N   0  0  0  0  0  0  0  0  0  0  0  0
    6.3067   -0.7686    0.0000 C   0  0  0  0  0  0  0  0  0  0  0  0
    5.6607   -2.1223    0.0000 C   0  0  0  0  0  0  0  0  0  0  0  0
    6.5100   -3.3587    0.0000 C   0  0  0  0  0  0  0  0  0  0  0  0
    8.0054   -3.2414    0.0000 C   0  0  0  0  0  0  0  0  0  0  0  0
    8.6515   -1.8876    0.0000 C   0  0  0  0  0  0  0  0  0  0  0  0
    7.8021   -0.6512    0.0000 C   0  0  0  0  0  0  0  0  0  0  0  0
    8.4482    0.7025    0.0000 N   0  0  0  0  0  0  0  0  0  0  0  0
    3.7587    2.9405    0.0000 C   0  0  0  0  0  0  0  0  0  0  0  0
    2.9094    4.1769    0.0000 C   0  0  0  0  0  0  0  0  0  0  0  0
    1.4140    4.0596    0.0000 C   0  0  0  0  0  0  0  0  0  0  0  0
    0.7679    2.7058    0.0000 C   0  0  0  0  0  0  0  0  0  0  0  0
   -0.7275    2.5885    0.0000 C   0  0  0  0  0  0  0  0  0  0  0  0
   -2.6657   -1.4727    0.0000 C   0  0  0  0  0  0  0  0  0  0  0  0
   -3.3117   -2.8265    0.0000 C   0  0  0  0  0  0  0  0  0  0  0  0
   -4.8071   -2.9438    0.0000 N   0  0  0  0  0  0  0  0  0  0  0  0
   -5.6565   -1.7075    0.0000 C   0  0  0  0  0  0  0  0  0  0  0  0
   -7.1519   -1.8248    0.0000 C   0  0  0  0  0  0  0  0  0  0  0  0
  1  2  1  0
  2  3  1  0
  3  4  2  0
  4  5  1  0
  5  6  2  0
  6  7  1  0
  7  8  1  0
  8  9  1  0
  9 10  2  0
 10 11  1  0
 11 12  2  0
 12 13  1  0
 13 14  1  0
 14 15  2  0
 14 16  1  0
 16 17  1  0
 17 18  2  0
 18 19  1  0
 19 20  2  0
 20 21  1  0
 21 22  2  0
 22 23  1  0
 13 24  2  0
 24 25  1  0
 25 26  2  0
 26 27  1  0
 27 28  2  0
  7 29  2  0
 29 30  1  0
 30 31  2  0
 31 32  1  0
 32 33  2  0
 33  3  1  0
 32  6  1  0
 28  9  1  0
 27 12  1  0
 22 17  1  0
M  END
>  <BrandName>  (297) 


>  <Applicants>  (297) 
Chipscreen Biosciences

>  <CHEMBL_ID>  (297) 
CHEMBL5095033

>  <Canonical_Smiles>  (297) 
COc1ccc2c(Oc3ccc4c(C(=O)Nc5ccccc5N)cccc4c3)ccnc2c1

>  <Chirality>  (297) 
Achiral Molecule

>  <First_Approval>  (297) 
nan

>  <Phase>  (297) 
3.0

>  <SC_Patent>  (297) 
nan

>  <Synonyms>  (297) 
CS2164|CS-2164|CHIAURANIB|IBCASERTIB

>  <Withdrawn>  (297) 
nan

>  <Indications>  (297) 
nan

>  <Type>  (297) 
nan

>  <targets_id>  (297) 
nan

>  <Inchi>  (297) 
InChI=1S/C27H21N3O3/c1-32-18-9-12-22-25(16-18)29-14-13-26(22)33-19-10-11-20-17(15-19)5-4-6-21(20)27(31)30-24-8-3-2-7-23(24)28/h2-16H,28H2,1H3,(H,30,31)

>  <stdInchikey>  (297) 
BRKWREZNORONDU-UHFFFAOYSA-N

>  <csid>  (297) 
81367270

>  <Links>  (297) 
|http://www.chemspider.com/Chemical-Structure.81367270.html

>  <LinkName>  (297) 
|ChemSpider

>  <lig_pdb_ID>  (297) 


>  <pdb_IDs>  (297) 


>  <indicationDB>  (297) 


>  <uniprotId>  (297) 


>  <indicationG2P>  (297) 


>  <MW>  (297) 
435.2

>  <HBA>  (297) 
5

>  <HBD>  (297) 
2

>  <NRB>  (297) 
5

>  <TPSA>  (297) 
86.5

>  <LogP>  (297) 
6.0

>  <RoF>  (297) 
1

>  <Melting point>  (297) 
nan

>  <Targets>  (297) 
nan

>  <Kinase families>  (297) 


>  <FDA_approved>  (297) 


$$$$
Rezivertinib
     RDKit          2D

 36 39  0  0  0  0  0  0  0  0999 V2000
    2.4271   -4.8940    0.0000 C   0  0  0  0  0  0  0  0  0  0  0  0
    1.3522   -3.8477    0.0000 C   0  0  0  0  0  0  0  0  0  0  0  0
    1.7208   -2.3937    0.0000 C   0  0  0  0  0  0  0  0  0  0  0  0
    3.1643   -1.9859    0.0000 O   0  0  0  0  0  0  0  0  0  0  0  0
    0.6459   -1.3475    0.0000 N   0  0  0  0  0  0  0  0  0  0  0  0
    1.0145    0.1065    0.0000 C   0  0  0  0  0  0  0  0  0  0  0  0
   -0.0604    1.1527    0.0000 C   0  0  0  0  0  0  0  0  0  0  0  0
    0.3081    2.6067    0.0000 C   0  0  0  0  0  0  0  0  0  0  0  0
   -0.7668    3.6529    0.0000 N   0  0  0  0  0  0  0  0  0  0  0  0
   -2.2103    3.2451    0.0000 C   0  0  0  0  0  0  0  0  0  0  0  0
   -3.2852    4.2913    0.0000 N   0  0  0  0  0  0  0  0  0  0  0  0
   -4.7287    3.8835    0.0000 C   0  0  0  0  0  0  0  0  0  0  0  0
   -5.0973    2.4295    0.0000 C   0  0  0  0  0  0  0  0  0  0  0  0
   -4.0224    1.3833    0.0000 C   0  0  0  0  0  0  0  0  0  0  0  0
   -4.3910   -0.0707    0.0000 C   0  0  0  0  0  0  0  0  0  0  0  0
   -5.7839   -0.6271    0.0000 C   0  0  0  0  0  0  0  0  0  0  0  0
   -5.6852   -2.1239    0.0000 N   0  0  0  0  0  0  0  0  0  0  0  0
   -6.8380   -3.0836    0.0000 C   0  0  0  0  0  0  0  0  0  0  0  0
   -4.2312   -2.4925    0.0000 C   0  0  0  0  0  0  0  0  0  0  0  0
   -3.5321   -3.8197    0.0000 C   0  0  0  0  0  0  0  0  0  0  0  0
   -2.0333   -3.8779    0.0000 C   0  0  0  0  0  0  0  0  0  0  0  0
   -1.2334   -2.6089    0.0000 C   0  0  0  0  0  0  0  0  0  0  0  0
   -1.9324   -1.2818    0.0000 C   0  0  0  0  0  0  0  0  0  0  0  0
   -3.4313   -1.2235    0.0000 C   0  0  0  0  0  0  0  0  0  0  0  0
   -2.5789    1.7911    0.0000 N   0  0  0  0  0  0  0  0  0  0  0  0
    1.7516    3.0145    0.0000 C   0  0  0  0  0  0  0  0  0  0  0  0
    2.1202    4.4685    0.0000 O   0  0  0  0  0  0  0  0  0  0  0  0
    3.5637    4.8763    0.0000 C   0  0  0  0  0  0  0  0  0  0  0  0
    2.8266    1.9683    0.0000 C   0  0  0  0  0  0  0  0  0  0  0  0
    2.4580    0.5143    0.0000 C   0  0  0  0  0  0  0  0  0  0  0  0
    3.5329   -0.5319    0.0000 O   0  0  0  0  0  0  0  0  0  0  0  0
    4.9764   -0.1241    0.0000 C   0  0  0  0  0  0  0  0  0  0  0  0
    6.0513   -1.1703    0.0000 C   0  0  0  0  0  0  0  0  0  0  0  0
    7.4948   -0.7625    0.0000 N   0  0  0  0  0  0  0  0  0  0  0  0
    8.5697   -1.8088    0.0000 C   0  0  0  0  0  0  0  0  0  0  0  0
    7.8634    0.6915    0.0000 C   0  0  0  0  0  0  0  0  0  0  0  0
  1  2  2  0
  2  3  1  0
  3  4  2  0
  3  5  1  0
  5  6  1  0
  6  7  2  0
  7  8  1  0
  8  9  1  0
  9 10  1  0
 10 11  2  0
 11 12  1  0
 12 13  2  0
 13 14  1  0
 14 15  1  0
 15 16  2  0
 16 17  1  0
 17 18  1  0
 17 19  1  0
 19 20  2  0
 20 21  1  0
 21 22  2  0
 22 23  1  0
 23 24  2  0
 14 25  2  0
  8 26  2  0
 26 27  1  0
 27 28  1  0
 26 29  1  0
 29 30  2  0
 30 31  1  0
 31 32  1  0
 32 33  1  0
 33 34  1  0
 34 35  1  0
 34 36  1  0
 30  6  1  0
 25 10  1  0
 24 15  1  0
 24 19  1  0
M  END
>  <BrandName>  (298) 


>  <Applicants>  (298) 
('Beta Pharma',)

>  <CHEMBL_ID>  (298) 
CHEMBL5314952

>  <Canonical_Smiles>  (298) 
C=CC(=O)Nc1cc(Nc2nccc(-c3cn(C)c4ccccc34)n2)c(OC)cc1OCCN(C)C

>  <Chirality>  (298) 
Achiral Molecule

>  <First_Approval>  (298) 
nan

>  <Phase>  (298) 
3.0

>  <SC_Patent>  (298) 
nan

>  <Synonyms>  (298) 
BPI-7711 | BPI7711 | REZIVERTINIB

>  <Withdrawn>  (298) 
nan

>  <Indications>  (298) 
nan

>  <Type>  (298) 
nan

>  <targets_id>  (298) 
nan

>  <Inchi>  (298) 
InChI=1S/C27H30N6O3/c1-6-26(34)29-22-15-21(24(35-5)16-25(22)36-14-13-32(2)3)31-27-28-12-11-20(30-27)19-17-33(4)23-10-8-7-9-18(19)23/h6-12,15-17H,1,13-14H2,2-5H3,(H,29,34)(H,28,30,31)

>  <stdInchikey>  (298) 
BPMZUKYFIDPLEA-UHFFFAOYSA-N

>  <csid>  (298) 
88296586

>  <Links>  (298) 
|http://www.chemspider.com/Chemical-Structure.88296586.html|https://www.ebi.ac.uk/chembldb/compound/inspect/CHEMBL5314952|https://pubchem.ncbi.nlm.nih.gov/compound/118912975|https://www.guidetopharmacology.org/GRAC/LigandDisplayForward?10628|https://precision.fda.gov/uniisearch/srs/unii/U65F5M6BD5

>  <LinkName>  (298) 
|ChemSpider|ChEMBL|PubChem|Guide to Pharmacology|FDA SRS

>  <lig_pdb_ID>  (298) 


>  <pdb_IDs>  (298) 


>  <indicationDB>  (298) 


>  <uniprotId>  (298) 


>  <indicationG2P>  (298) 
None

>  <MW>  (298) 
486.2

>  <HBA>  (298) 
8

>  <HBD>  (298) 
2

>  <NRB>  (298) 
10

>  <TPSA>  (298) 
93.5

>  <LogP>  (298) 
4.5

>  <RoF>  (298) 
0

>  <Melting point>  (298) 
nan

>  <Targets>  (298) 
nan

>  <Kinase families>  (298) 


>  <FDA_approved>  (298) 


$$$$
Gedatolisib
     RDKit          2D

 45 50  0  0  0  0  0  0  0  0999 V2000
  -10.2676   -5.1102    0.0000 C   0  0  0  0  0  0  0  0  0  0  0  0
   -8.9116   -4.4690    0.0000 N   0  0  0  0  0  0  0  0  0  0  0  0
   -7.6783   -5.3228    0.0000 C   0  0  0  0  0  0  0  0  0  0  0  0
   -8.7888   -2.9740    0.0000 C   0  0  0  0  0  0  0  0  0  0  0  0
  -10.0221   -2.1202    0.0000 C   0  0  0  0  0  0  0  0  0  0  0  0
   -9.8993   -0.6253    0.0000 C   0  0  0  0  0  0  0  0  0  0  0  0
   -8.5433    0.0159    0.0000 N   0  0  0  0  0  0  0  0  0  0  0  0
   -7.3100   -0.8379    0.0000 C   0  0  0  0  0  0  0  0  0  0  0  0
   -7.4327   -2.3329    0.0000 C   0  0  0  0  0  0  0  0  0  0  0  0
   -8.4205    1.5109    0.0000 C   0  0  0  0  0  0  0  0  0  0  0  0
   -9.6538    2.3647    0.0000 O   0  0  0  0  0  0  0  0  0  0  0  0
   -7.0644    2.1521    0.0000 C   0  0  0  0  0  0  0  0  0  0  0  0
   -5.8312    1.2983    0.0000 C   0  0  0  0  0  0  0  0  0  0  0  0
   -4.4751    1.9394    0.0000 C   0  0  0  0  0  0  0  0  0  0  0  0
   -4.3523    3.4344    0.0000 C   0  0  0  0  0  0  0  0  0  0  0  0
   -5.5856    4.2882    0.0000 C   0  0  0  0  0  0  0  0  0  0  0  0
   -6.9417    3.6470    0.0000 C   0  0  0  0  0  0  0  0  0  0  0  0
   -2.9963    4.0756    0.0000 N   0  0  0  0  0  0  0  0  0  0  0  0
   -1.7630    3.2218    0.0000 C   0  0  0  0  0  0  0  0  0  0  0  0
   -1.8857    1.7268    0.0000 O   0  0  0  0  0  0  0  0  0  0  0  0
   -0.4069    3.8629    0.0000 N   0  0  0  0  0  0  0  0  0  0  0  0
    0.8264    3.0091    0.0000 C   0  0  0  0  0  0  0  0  0  0  0  0
    0.7036    1.5142    0.0000 C   0  0  0  0  0  0  0  0  0  0  0  0
    1.9369    0.6604    0.0000 C   0  0  0  0  0  0  0  0  0  0  0  0
    3.2930    1.3015    0.0000 C   0  0  0  0  0  0  0  0  0  0  0  0
    3.4158    2.7965    0.0000 C   0  0  0  0  0  0  0  0  0  0  0  0
    2.1825    3.6503    0.0000 C   0  0  0  0  0  0  0  0  0  0  0  0
    4.5263    0.4477    0.0000 C   0  0  0  0  0  0  0  0  0  0  0  0
    4.4035   -1.0472    0.0000 N   0  0  0  0  0  0  0  0  0  0  0  0
    5.6368   -1.9010    0.0000 C   0  0  0  0  0  0  0  0  0  0  0  0
    6.9929   -1.2599    0.0000 N   0  0  0  0  0  0  0  0  0  0  0  0
    7.1157    0.2351    0.0000 C   0  0  0  0  0  0  0  0  0  0  0  0
    5.8824    1.0889    0.0000 N   0  0  0  0  0  0  0  0  0  0  0  0
    8.4717    0.8763    0.0000 N   0  0  0  0  0  0  0  0  0  0  0  0
    9.7050    0.0225    0.0000 C   0  0  0  0  0  0  0  0  0  0  0  0
   11.0611    0.6636    0.0000 C   0  0  0  0  0  0  0  0  0  0  0  0
   11.1838    2.1586    0.0000 O   0  0  0  0  0  0  0  0  0  0  0  0
    9.9505    3.0124    0.0000 C   0  0  0  0  0  0  0  0  0  0  0  0
    8.5945    2.3712    0.0000 C   0  0  0  0  0  0  0  0  0  0  0  0
    5.5141   -3.3960    0.0000 N   0  0  0  0  0  0  0  0  0  0  0  0
    4.1580   -4.0372    0.0000 C   0  0  0  0  0  0  0  0  0  0  0  0
    4.0352   -5.5321    0.0000 C   0  0  0  0  0  0  0  0  0  0  0  0
    5.2685   -6.3859    0.0000 O   0  0  0  0  0  0  0  0  0  0  0  0
    6.6246   -5.7448    0.0000 C   0  0  0  0  0  0  0  0  0  0  0  0
    6.7474   -4.2498    0.0000 C   0  0  0  0  0  0  0  0  0  0  0  0
  1  2  1  0
  2  3  1  0
  2  4  1  0
  4  5  1  0
  5  6  1  0
  6  7  1  0
  7  8  1  0
  8  9  1  0
  7 10  1  0
 10 11  2  0
 10 12  1  0
 12 13  2  0
 13 14  1  0
 14 15  2  0
 15 16  1  0
 16 17  2  0
 15 18  1  0
 18 19  1  0
 19 20  2  0
 19 21  1  0
 21 22  1  0
 22 23  2  0
 23 24  1  0
 24 25  2  0
 25 26  1  0
 26 27  2  0
 25 28  1  0
 28 29  2  0
 29 30  1  0
 30 31  2  0
 31 32  1  0
 32 33  2  0
 32 34  1  0
 34 35  1  0
 35 36  1  0
 36 37  1  0
 37 38  1  0
 38 39  1  0
 30 40  1  0
 40 41  1  0
 41 42  1  0
 42 43  1  0
 43 44  1  0
 44 45  1  0
  9  4  1  0
 17 12  1  0
 27 22  1  0
 33 28  1  0
 39 34  1  0
 45 40  1  0
M  END
>  <BrandName>  (299) 


>  <Applicants>  (299) 
Pfizer

>  <CHEMBL_ID>  (299) 
CHEMBL592445

>  <Canonical_Smiles>  (299) 
CN(C)C1CCN(CC1)C(=O)c2ccc(cc2)NC(=O)Nc3ccc(cc3)c4nc(nc(n4)N5CCOCC5)N6CCOCC6

>  <Chirality>  (299) 
Achiral Molecule

>  <First_Approval>  (299) 
nan

>  <Phase>  (299) 
3.0

>  <SC_Patent>  (299) 
nan

>  <Synonyms>  (299) 
GEDATOLISIB | PF-05212384 | PKI-587

>  <Withdrawn>  (299) 
{'', 'Study NCT03400254 in United States was Withdrawn during PHASE1 because due to business decision regarding the study drug'}

>  <Indications>  (299) 
nan

>  <Type>  (299) 
nan

>  <targets_id>  (299) 
P42336|P42338|P48736|O00329|P42345

>  <Inchi>  (299) 
InChI=1S/C32H41N9O4/c1-38(2)27-11-13-39(14-12-27)29(42)24-5-9-26(10-6-24)34-32(43)33-25-7-3-23(4-8-25)28-35-30(40-15-19-44-20-16-40)37-31(36-28)41-17-21-45-22-18-41/h3-10,27H,11-22H2,1-2H3,(H2,33,34,43)

>  <stdInchikey>  (299) 
DWZAEMINVBZMHQ-UHFFFAOYSA-N

>  <csid>  (299) 
24644946

>  <Links>  (299) 
|http://www.chemspider.com/Chemical-Structure.24644946.html|https://www.ebi.ac.uk/chembldb/compound/inspect/CHEMBL592445|https://pubchem.ncbi.nlm.nih.gov/compound/44516953|https://go.drugbank.com/drugs/DB11896|https://www.rcsb.org/ligand/VL1|https://www.ebi.ac.uk/pdbe-srv/pdbechem/chemicalCompound/show/VL1|https://www.guidetopharmacology.org/GRAC/LigandDisplayForward?7940|https://zinc15.docking.org/substances/ZINC000049757175|https://precision.fda.gov/uniisearch/srs/unii/96265TNH2R|https://www.bindingdb.org/bind/chemsearch/marvin/MolStructure.jsp?monomerid=50308135

>  <LinkName>  (299) 
|ChemSpider|ChEMBL|PubChem|DrugBank|RCSB|PDBe|Guide to Pharmacology|ZINC|FDA SRS|BindingDB

>  <lig_pdb_ID>  (299) 
VL1

>  <pdb_IDs>  (299) 
7jwe

>  <indicationDB>  (299) 


>  <uniprotId>  (299) 


>  <indicationG2P>  (299) 
None

>  <MW>  (299) 
615.3

>  <HBA>  (299) 
10

>  <HBD>  (299) 
2

>  <NRB>  (299) 
7

>  <TPSA>  (299) 
128.3

>  <LogP>  (299) 
3.0

>  <RoF>  (299) 
1

>  <Melting point>  (299) 
nan

>  <Targets>  (299) 
PIK3CA; PIK3CB; PIK3CG; PIK3CD; MTOR

>  <Kinase families>  (299) 
Atypical

>  <FDA_approved>  (299) 


$$$$
Chiauranib
     RDKit          2D

 33 37  0  0  0  0  0  0  0  0999 V2000
  -10.3460    0.5306    0.0000 C   0  0  0  0  0  0  0  0  0  0  0  0
   -9.4966   -0.7058    0.0000 O   0  0  0  0  0  0  0  0  0  0  0  0
   -8.0012   -0.5884    0.0000 C   0  0  0  0  0  0  0  0  0  0  0  0
   -7.3551    0.7653    0.0000 C   0  0  0  0  0  0  0  0  0  0  0  0
   -5.8597    0.8827    0.0000 C   0  0  0  0  0  0  0  0  0  0  0  0
   -5.0104   -0.3537    0.0000 C   0  0  0  0  0  0  0  0  0  0  0  0
   -3.5150   -0.2364    0.0000 C   0  0  0  0  0  0  0  0  0  0  0  0
   -2.6657   -1.4727    0.0000 C   0  0  0  0  0  0  0  0  0  0  0  0
   -3.3117   -2.8265    0.0000 C   0  0  0  0  0  0  0  0  0  0  0  0
   -4.8071   -2.9438    0.0000 N   0  0  0  0  0  0  0  0  0  0  0  0
   -5.6565   -1.7075    0.0000 C   0  0  0  0  0  0  0  0  0  0  0  0
   -7.1519   -1.8248    0.0000 C   0  0  0  0  0  0  0  0  0  0  0  0
   -2.8689    1.1174    0.0000 O   0  0  0  0  0  0  0  0  0  0  0  0
   -1.3735    1.2347    0.0000 C   0  0  0  0  0  0  0  0  0  0  0  0
   -0.7275    2.5885    0.0000 C   0  0  0  0  0  0  0  0  0  0  0  0
    0.7679    2.7058    0.0000 C   0  0  0  0  0  0  0  0  0  0  0  0
    1.4140    4.0596    0.0000 C   0  0  0  0  0  0  0  0  0  0  0  0
    2.9094    4.1769    0.0000 C   0  0  0  0  0  0  0  0  0  0  0  0
    3.7587    2.9405    0.0000 C   0  0  0  0  0  0  0  0  0  0  0  0
    3.1127    1.5868    0.0000 C   0  0  0  0  0  0  0  0  0  0  0  0
    3.9620    0.3504    0.0000 C   0  0  0  0  0  0  0  0  0  0  0  0
    3.3159   -1.0033    0.0000 O   0  0  0  0  0  0  0  0  0  0  0  0
    5.4574    0.4678    0.0000 N   0  0  0  0  0  0  0  0  0  0  0  0
    6.3067   -0.7686    0.0000 C   0  0  0  0  0  0  0  0  0  0  0  0
    5.6607   -2.1223    0.0000 C   0  0  0  0  0  0  0  0  0  0  0  0
    6.5100   -3.3587    0.0000 C   0  0  0  0  0  0  0  0  0  0  0  0
    8.0054   -3.2414    0.0000 C   0  0  0  0  0  0  0  0  0  0  0  0
    8.6515   -1.8876    0.0000 C   0  0  0  0  0  0  0  0  0  0  0  0
    7.8021   -0.6512    0.0000 C   0  0  0  0  0  0  0  0  0  0  0  0
    8.4482    0.7025    0.0000 N   0  0  0  0  0  0  0  0  0  0  0  0
    1.6173    1.4694    0.0000 C   0  0  0  0  0  0  0  0  0  0  0  0
    0.9712    0.1157    0.0000 C   0  0  0  0  0  0  0  0  0  0  0  0
   -0.5242   -0.0017    0.0000 C   0  0  0  0  0  0  0  0  0  0  0  0
  1  2  1  0
  2  3  1  0
  3  4  2  0
  4  5  1  0
  5  6  2  0
  6  7  1  0
  7  8  2  0
  8  9  1  0
  9 10  2  0
 10 11  1  0
 11 12  2  0
  7 13  1  0
 13 14  1  0
 14 15  2  0
 15 16  1  0
 16 17  2  0
 17 18  1  0
 18 19  2  0
 19 20  1  0
 20 21  1  0
 21 22  2  0
 21 23  1  0
 23 24  1  0
 24 25  2  0
 25 26  1  0
 26 27  2  0
 27 28  1  0
 28 29  2  0
 29 30  1  0
 20 31  2  0
 31 32  1  0
 32 33  2  0
 12  3  1  0
 33 14  1  0
 11  6  1  0
 31 16  1  0
 29 24  1  0
M  END
>  <BrandName>  (300) 


>  <Applicants>  (300) 
Chipscreen Biosciences

>  <CHEMBL_ID>  (300) 
nan

>  <Canonical_Smiles>  (300) 
COC1=CC=C2C(=CC=NC2=C1)OC1=CC2=CC=CC(C(=O)NC3=CC=CC=C3N)=C2C=C1

>  <Chirality>  (300) 
nan

>  <First_Approval>  (300) 
nan

>  <Phase>  (300) 
3.0

>  <SC_Patent>  (300) 
nan

>  <Synonyms>  (300) 
CS2164|CS-2164|CHIAURANIB|IBCASERTIB

>  <Withdrawn>  (300) 
{''}

>  <Indications>  (300) 
nan

>  <Type>  (300) 
nan

>  <targets_id>  (300) 
nan

>  <Inchi>  (300) 
InChI=1S/C27H21N3O3/c1-32-18-9-12-22-25(16-18)29-14-13-26(22)33-19-10-11-20-17(15-19)5-4-6-21(20)27(31)30-24-8-3-2-7-23(24)28/h2-16H,28H2,1H3,(H,30,31)

>  <stdInchikey>  (300) 
BRKWREZNORONDU-UHFFFAOYSA-N

>  <csid>  (300) 
81367270

>  <Links>  (300) 
|http://www.chemspider.com/Chemical-Structure.81367270.html

>  <LinkName>  (300) 
|ChemSpider

>  <lig_pdb_ID>  (300) 


>  <pdb_IDs>  (300) 


>  <indicationDB>  (300) 


>  <uniprotId>  (300) 


>  <indicationG2P>  (300) 


>  <MW>  (300) 
435.2

>  <HBA>  (300) 
5

>  <HBD>  (300) 
2

>  <NRB>  (300) 
5

>  <TPSA>  (300) 
86.5

>  <LogP>  (300) 
6.0

>  <RoF>  (300) 
1

>  <Melting point>  (300) 
nan

>  <Targets>  (300) 
nan

>  <Kinase families>  (300) 


>  <FDA_approved>  (300) 


$$$$
Alisertib
     RDKit          2D

 37 41  0  0  0  0  0  0  0  0999 V2000
   -5.8907   -4.5708    0.0000 C   0  0  0  0  0  0  0  0  0  0  0  0
   -5.1966   -3.2411    0.0000 O   0  0  0  0  0  0  0  0  0  0  0  0
   -6.0012   -1.9751    0.0000 C   0  0  0  0  0  0  0  0  0  0  0  0
   -7.4998   -2.0389    0.0000 C   0  0  0  0  0  0  0  0  0  0  0  0
   -8.3044   -0.7729    0.0000 C   0  0  0  0  0  0  0  0  0  0  0  0
   -7.6103    0.5569    0.0000 C   0  0  0  0  0  0  0  0  0  0  0  0
   -6.1116    0.6206    0.0000 C   0  0  0  0  0  0  0  0  0  0  0  0
   -5.3071   -0.6454    0.0000 C   0  0  0  0  0  0  0  0  0  0  0  0
   -3.8084   -0.5816    0.0000 C   0  0  0  0  0  0  0  0  0  0  0  0
   -3.1007   -1.9042    0.0000 N   0  0  0  0  0  0  0  0  0  0  0  0
   -1.6255   -2.1755    0.0000 C   0  0  0  0  0  0  0  0  0  0  0  0
   -0.4936   -1.1912    0.0000 C   0  0  0  0  0  0  0  0  0  0  0  0
    0.8362   -1.8853    0.0000 C   0  0  0  0  0  0  0  0  0  0  0  0
    2.1022   -1.0808    0.0000 N   0  0  0  0  0  0  0  0  0  0  0  0
    2.0384    0.4179    0.0000 C   0  0  0  0  0  0  0  0  0  0  0  0
    0.7087    1.1120    0.0000 N   0  0  0  0  0  0  0  0  0  0  0  0
   -0.5573    0.3074    0.0000 C   0  0  0  0  0  0  0  0  0  0  0  0
   -1.7688    1.1920    0.0000 C   0  0  0  0  0  0  0  0  0  0  0  0
   -3.2156    0.7963    0.0000 C   0  0  0  0  0  0  0  0  0  0  0  0
   -4.2817    1.8515    0.0000 C   0  0  0  0  0  0  0  0  0  0  0  0
   -3.9009    3.3024    0.0000 C   0  0  0  0  0  0  0  0  0  0  0  0
   -2.4540    3.6980    0.0000 C   0  0  0  0  0  0  0  0  0  0  0  0
   -1.3880    2.6428    0.0000 C   0  0  0  0  0  0  0  0  0  0  0  0
   -4.9670    4.3576    0.0000 Cl  0  0  0  0  0  0  0  0  0  0  0  0
    3.3044    1.2224    0.0000 N   0  0  0  0  0  0  0  0  0  0  0  0
    4.6341    0.5283    0.0000 C   0  0  0  0  0  0  0  0  0  0  0  0
    4.6979   -0.9703    0.0000 C   0  0  0  0  0  0  0  0  0  0  0  0
    6.0276   -1.6644    0.0000 C   0  0  0  0  0  0  0  0  0  0  0  0
    7.2936   -0.8599    0.0000 C   0  0  0  0  0  0  0  0  0  0  0  0
    7.2299    0.6388    0.0000 C   0  0  0  0  0  0  0  0  0  0  0  0
    5.9001    1.3329    0.0000 C   0  0  0  0  0  0  0  0  0  0  0  0
    8.4958    1.4433    0.0000 O   0  0  0  0  0  0  0  0  0  0  0  0
    8.4321    2.9419    0.0000 C   0  0  0  0  0  0  0  0  0  0  0  0
    8.6234   -1.5540    0.0000 C   0  0  0  0  0  0  0  0  0  0  0  0
    9.8894   -0.7494    0.0000 O   0  0  0  0  0  0  0  0  0  0  0  0
    8.6871   -3.0526    0.0000 O   0  0  0  0  0  0  0  0  0  0  0  0
   -5.4175    1.9504    0.0000 F   0  0  0  0  0  0  0  0  0  0  0  0
  1  2  1  0
  2  3  1  0
  3  4  2  0
  4  5  1  0
  5  6  2  0
  6  7  1  0
  7  8  2  0
  8  9  1  0
  9 10  2  0
 10 11  1  0
 11 12  1  0
 12 13  2  0
 13 14  1  0
 14 15  2  0
 15 16  1  0
 16 17  2  0
 17 18  1  0
 18 19  2  0
 19 20  1  0
 20 21  2  0
 21 22  1  0
 22 23  2  0
 21 24  1  0
 15 25  1  0
 25 26  1  0
 26 27  2  0
 27 28  1  0
 28 29  2  0
 29 30  1  0
 30 31  2  0
 30 32  1  0
 32 33  1  0
 29 34  1  0
 34 35  2  0
 34 36  1  0
  7 37  1  0
  8  3  1  0
 19  9  1  0
 17 12  1  0
 23 18  1  0
 31 26  1  0
M  END
>  <BrandName>  (301) 


>  <Applicants>  (301) 
Millennium Pharmaceuticals

>  <CHEMBL_ID>  (301) 
CHEMBL483158

>  <Canonical_Smiles>  (301) 
COc1cccc(c1C2=NCc3cnc(nc3-c4c2cc(cc4)Cl)Nc5ccc(c(c5)OC)C(=O)O)F

>  <Chirality>  (301) 
Achiral Molecule

>  <First_Approval>  (301) 
nan

>  <Phase>  (301) 
3.0

>  <SC_Patent>  (301) 
nan

>  <Synonyms>  (301) 
ALISERTIB | MLN 8237 | MLN-8237 | MLN8237

>  <Withdrawn>  (301) 
{''}

>  <Indications>  (301) 
For the treatment of various forms of cancer.

>  <Type>  (301) 
1

>  <targets_id>  (301) 
O14965

>  <Inchi>  (301) 
InChI=1S/C27H20ClFN4O4/c1-36-21-5-3-4-20(29)23(21)25-19-10-15(28)6-8-17(19)24-14(12-30-25)13-31-27(33-24)32-16-7-9-18(26(34)35)22(11-16)37-2/h3-11,13H,12H2,1-2H3,(H,34,35)(H,31,32,33)

>  <stdInchikey>  (301) 
ZLHFILGSQDJULK-UHFFFAOYSA-N

>  <csid>  (301) 
24700147

>  <Links>  (301) 
|http://www.chemspider.com/Chemical-Structure.24700147.html|https://www.ebi.ac.uk/chembldb/compound/inspect/CHEMBL483158|https://pubchem.ncbi.nlm.nih.gov/compound/24771867|https://go.drugbank.com/drugs/DB05220|https://www.rcsb.org/ligand/A5B|https://www.ebi.ac.uk/pdbe-srv/pdbechem/chemicalCompound/show/A5B|https://www.guidetopharmacology.org/GRAC/LigandDisplayForward?7790|https://zinc15.docking.org/substances/ZINC000040939534|https://precision.fda.gov/uniisearch/srs/unii/T66ES73M18|https://www.bindingdb.org/bind/chemsearch/marvin/MolStructure.jsp?monomerid=50277545

>  <LinkName>  (301) 
|ChemSpider|ChEMBL|PubChem|DrugBank|RCSB|PDBe|Guide to Pharmacology|ZINC|FDA SRS|BindingDB

>  <lig_pdb_ID>  (301) 
A5B

>  <pdb_IDs>  (301) 
5ia0

>  <indicationDB>  (301) 


>  <uniprotId>  (301) 


>  <indicationG2P>  (301) 
None

>  <MW>  (301) 
518.1

>  <HBA>  (301) 
7

>  <HBD>  (301) 
2

>  <NRB>  (301) 
6

>  <TPSA>  (301) 
105.9

>  <LogP>  (301) 
5.7

>  <RoF>  (301) 
2

>  <Melting point>  (301) 
nan

>  <Targets>  (301) 
AURKA

>  <Kinase families>  (301) 
Other

>  <FDA_approved>  (301) 


$$$$
Alflutinib
     RDKit          2D

 41 44  0  0  0  0  0  0  0  0999 V2000
    0.1353   -5.8390    0.0000 C   0  0  0  0  0  0  0  0  0  0  0  0
   -0.5570   -4.5084    0.0000 C   0  0  0  0  0  0  0  0  0  0  0  0
    0.2491   -3.2434    0.0000 C   0  0  0  0  0  0  0  0  0  0  0  0
    1.3276   -3.4241    0.0000 O   0  0  0  0  0  0  0  0  0  0  0  0
   -0.4432   -1.9128    0.0000 N   0  0  0  0  0  0  0  0  0  0  0  0
    0.3629   -0.6478    0.0000 C   0  0  0  0  0  0  0  0  0  0  0  0
   -0.3294    0.6828    0.0000 C   0  0  0  0  0  0  0  0  0  0  0  0
    0.4767    1.9477    0.0000 C   0  0  0  0  0  0  0  0  0  0  0  0
   -0.2156    3.2784    0.0000 N   0  0  0  0  0  0  0  0  0  0  0  0
   -1.7142    3.3441    0.0000 C   0  0  0  0  0  0  0  0  0  0  0  0
   -2.4066    4.6747    0.0000 N   0  0  0  0  0  0  0  0  0  0  0  0
   -3.9051    4.7404    0.0000 C   0  0  0  0  0  0  0  0  0  0  0  0
   -4.7113    3.4755    0.0000 C   0  0  0  0  0  0  0  0  0  0  0  0
   -4.0189    2.1448    0.0000 C   0  0  0  0  0  0  0  0  0  0  0  0
   -4.8251    0.8799    0.0000 C   0  0  0  0  0  0  0  0  0  0  0  0
   -6.3223    0.7886    0.0000 C   0  0  0  0  0  0  0  0  0  0  0  0
   -6.6982   -0.6635    0.0000 N   0  0  0  0  0  0  0  0  0  0  0  0
   -8.0939   -1.2130    0.0000 C   0  0  0  0  0  0  0  0  0  0  0  0
   -5.4332   -1.4697    0.0000 C   0  0  0  0  0  0  0  0  0  0  0  0
   -5.1859   -2.9492    0.0000 C   0  0  0  0  0  0  0  0  0  0  0  0
   -3.7810   -3.4748    0.0000 C   0  0  0  0  0  0  0  0  0  0  0  0
   -2.6234   -2.5209    0.0000 C   0  0  0  0  0  0  0  0  0  0  0  0
   -2.8707   -1.0414    0.0000 C   0  0  0  0  0  0  0  0  0  0  0  0
   -4.2756   -0.5158    0.0000 C   0  0  0  0  0  0  0  0  0  0  0  0
   -2.5204    2.0791    0.0000 N   0  0  0  0  0  0  0  0  0  0  0  0
    1.9753    1.8820    0.0000 C   0  0  0  0  0  0  0  0  0  0  0  0
    2.7815    3.1470    0.0000 O   0  0  0  0  0  0  0  0  0  0  0  0
    4.2800    3.0813    0.0000 C   0  0  0  0  0  0  0  0  0  0  0  0
    5.0862    4.3462    0.0000 C   0  0  0  0  0  0  0  0  0  0  0  0
    5.8924    5.6112    0.0000 F   0  0  0  0  0  0  0  0  0  0  0  0
    6.3512    3.5400    0.0000 F   0  0  0  0  0  0  0  0  0  0  0  0
    3.8213    5.1524    0.0000 F   0  0  0  0  0  0  0  0  0  0  0  0
    2.6677    0.5514    0.0000 N   0  0  0  0  0  0  0  0  0  0  0  0
    1.8615   -0.7135    0.0000 C   0  0  0  0  0  0  0  0  0  0  0  0
    2.5539   -2.0442    0.0000 N   0  0  0  0  0  0  0  0  0  0  0  0
    2.0830   -3.0311    0.0000 C   0  0  0  0  0  0  0  0  0  0  0  0
    4.0524   -2.1099    0.0000 C   0  0  0  0  0  0  0  0  0  0  0  0
    4.7448   -3.4405    0.0000 C   0  0  0  0  0  0  0  0  0  0  0  0
    6.2434   -3.5062    0.0000 N   0  0  0  0  0  0  0  0  0  0  0  0
    6.9358   -4.8369    0.0000 C   0  0  0  0  0  0  0  0  0  0  0  0
    7.0496   -2.2413    0.0000 C   0  0  0  0  0  0  0  0  0  0  0  0
  1  2  2  0
  2  3  1  0
  3  4  2  0
  3  5  1  0
  5  6  1  0
  6  7  2  0
  7  8  1  0
  8  9  1  0
  9 10  1  0
 10 11  2  0
 11 12  1  0
 12 13  2  0
 13 14  1  0
 14 15  1  0
 15 16  2  0
 16 17  1  0
 17 18  1  0
 17 19  1  0
 19 20  2  0
 20 21  1  0
 21 22  2  0
 22 23  1  0
 23 24  2  0
 14 25  2  0
  8 26  2  0
 26 27  1  0
 27 28  1  0
 28 29  1  0
 29 30  1  0
 29 31  1  0
 29 32  1  0
 26 33  1  0
 33 34  2  0
 34 35  1  0
 35 36  1  0
 35 37  1  0
 37 38  1  0
 38 39  1  0
 39 40  1  0
 39 41  1  0
 34  6  1  0
 25 10  1  0
 24 15  1  0
 24 19  1  0
M  END
>  <BrandName>  (302) 


>  <Applicants>  (302) 
Allist Pharmaceuticals

>  <CHEMBL_ID>  (302) 
nan

>  <Canonical_Smiles>  (302) 
C=CC(=O)Nc1cc(Nc2nccc(-c3cn(C)c4ccccc34)n2)c(OCC(F)(F)F)nc1N(C)CCN(C)C

>  <Chirality>  (302) 
nan

>  <First_Approval>  (302) 
nan

>  <Phase>  (302) 
3.0

>  <SC_Patent>  (302) 
nan

>  <Synonyms>  (302) 
AST-2818|AST2818|FURMONERTINIB|ALFLUTINIB

>  <Withdrawn>  (302) 
{''}

>  <Indications>  (302) 
nan

>  <Type>  (302) 
nan

>  <targets_id>  (302) 
nan

>  <Inchi>  (302) 
InChI=1S/C28H31F3N8O2/c1-6-24(40)33-21-15-22(26(41-17-28(29,30)31)36-25(21)38(4)14-13-37(2)3)35-27-32-12-11-20(34-27)19-16-39(5)23-10-8-7-9-18(19)23/h6-12,15-16H,1,13-14,17H2,2-5H3,(H,33,40)(H,32,34,35)

>  <stdInchikey>  (302) 
GHKOONMJXNWOIW-UHFFFAOYSA-N

>  <csid>  (302) 
81367235

>  <Links>  (302) 
|http://www.chemspider.com/Chemical-Structure.81367235.html

>  <LinkName>  (302) 
|ChemSpider

>  <lig_pdb_ID>  (302) 


>  <pdb_IDs>  (302) 


>  <indicationDB>  (302) 


>  <uniprotId>  (302) 


>  <indicationG2P>  (302) 


>  <MW>  (302) 
568.3

>  <HBA>  (302) 
9

>  <HBD>  (302) 
2

>  <NRB>  (302) 
11

>  <TPSA>  (302) 
100.4

>  <LogP>  (302) 
4.8

>  <RoF>  (302) 
1

>  <Melting point>  (302) 
nan

>  <Targets>  (302) 
nan

>  <Kinase families>  (302) 


>  <FDA_approved>  (302) 


$$$$
Dalpiciclib
     RDKit          2D

 33 37  0  0  0  0  0  0  0  0999 V2000
   -7.3019   -2.3855    0.0000 C   0  0  0  0  0  0  0  0  0  0  0  0
   -5.8762   -2.8517    0.0000 C   0  0  0  0  0  0  0  0  0  0  0  0
   -5.5671   -4.3196    0.0000 O   0  0  0  0  0  0  0  0  0  0  0  0
   -4.7596   -1.8502    0.0000 C   0  0  0  0  0  0  0  0  0  0  0  0
   -3.3339   -2.3164    0.0000 C   0  0  0  0  0  0  0  0  0  0  0  0
   -3.0248   -3.7842    0.0000 C   0  0  0  0  0  0  0  0  0  0  0  0
   -2.2173   -1.3148    0.0000 C   0  0  0  0  0  0  0  0  0  0  0  0
   -0.7916   -1.7810    0.0000 C   0  0  0  0  0  0  0  0  0  0  0  0
    0.3250   -0.7794    0.0000 N   0  0  0  0  0  0  0  0  0  0  0  0
    0.0160    0.6884    0.0000 C   0  0  0  0  0  0  0  0  0  0  0  0
    1.1326    1.6900    0.0000 N   0  0  0  0  0  0  0  0  0  0  0  0
    2.5583    1.2237    0.0000 C   0  0  0  0  0  0  0  0  0  0  0  0
    2.8674   -0.2441    0.0000 C   0  0  0  0  0  0  0  0  0  0  0  0
    4.2931   -0.7103    0.0000 C   0  0  0  0  0  0  0  0  0  0  0  0
    5.4097    0.2913    0.0000 C   0  0  0  0  0  0  0  0  0  0  0  0
    6.8354   -0.1750    0.0000 C   0  0  0  0  0  0  0  0  0  0  0  0
    7.1445   -1.6428    0.0000 C   0  0  0  0  0  0  0  0  0  0  0  0
    8.5702   -2.1090    0.0000 C   0  0  0  0  0  0  0  0  0  0  0  0
    9.6868   -1.1074    0.0000 N   0  0  0  0  0  0  0  0  0  0  0  0
    9.3777    0.3604    0.0000 C   0  0  0  0  0  0  0  0  0  0  0  0
    7.9520    0.8266    0.0000 C   0  0  0  0  0  0  0  0  0  0  0  0
    5.1006    1.7591    0.0000 C   0  0  0  0  0  0  0  0  0  0  0  0
    3.6749    2.2253    0.0000 N   0  0  0  0  0  0  0  0  0  0  0  0
   -1.4097    1.1546    0.0000 N   0  0  0  0  0  0  0  0  0  0  0  0
   -2.5264    0.1530    0.0000 C   0  0  0  0  0  0  0  0  0  0  0  0
   -3.9521    0.6192    0.0000 N   0  0  0  0  0  0  0  0  0  0  0  0
   -4.2612    2.0870    0.0000 C   0  0  0  0  0  0  0  0  0  0  0  0
   -5.6303    2.6997    0.0000 C   0  0  0  0  0  0  0  0  0  0  0  0
   -5.4707    4.1912    0.0000 C   0  0  0  0  0  0  0  0  0  0  0  0
   -4.0029    4.5003    0.0000 C   0  0  0  0  0  0  0  0  0  0  0  0
   -3.2554    3.1999    0.0000 C   0  0  0  0  0  0  0  0  0  0  0  0
   -5.0687   -0.3823    0.0000 C   0  0  0  0  0  0  0  0  0  0  0  0
   -6.4944    0.0839    0.0000 O   0  0  0  0  0  0  0  0  0  0  0  0
  1  2  1  0
  2  3  2  0
  2  4  1  0
  4  5  2  0
  5  6  1  0
  5  7  1  0
  7  8  2  0
  8  9  1  0
  9 10  2  0
 10 11  1  0
 11 12  1  0
 12 13  2  0
 13 14  1  0
 14 15  2  0
 15 16  1  0
 16 17  1  0
 17 18  1  0
 18 19  1  0
 19 20  1  0
 20 21  1  0
 15 22  1  0
 22 23  2  0
 10 24  1  0
 24 25  2  0
 25 26  1  0
 26 27  1  0
 27 28  1  0
 28 29  1  0
 29 30  1  0
 30 31  1  0
 26 32  1  0
 32 33  2  0
 32  4  1  0
 25  7  1  0
 31 27  1  0
 23 12  1  0
 21 16  1  0
M  END
>  <BrandName>  (303) 


>  <Applicants>  (303) 
Jiangsu Hengrui Medicine

>  <CHEMBL_ID>  (303) 
CHEMBL4802161

>  <Canonical_Smiles>  (303) 
CC(=O)c1c(C)c2cnc(Nc3ccc(C4CCNCC4)cn3)nc2n(C2CCCC2)c1=O

>  <Chirality>  (303) 
Achiral Molecule

>  <First_Approval>  (303) 
nan

>  <Phase>  (303) 
3.0

>  <SC_Patent>  (303) 
nan

>  <Synonyms>  (303) 
DALPICICLIB | SHR-6390

>  <Withdrawn>  (303) 
{''}

>  <Indications>  (303) 
nan

>  <Type>  (303) 
nan

>  <targets_id>  (303) 
nan

>  <Inchi>  (303) 
InChI=1S/C25H30N6O2/c1-15-20-14-28-25(29-21-8-7-18(13-27-21)17-9-11-26-12-10-17)30-23(20)31(19-5-3-4-6-19)24(33)22(15)16(2)32/h7-8,13-14,17,19,26H,3-6,9-12H2,1-2H3,(H,27,28,29,30)

>  <stdInchikey>  (303) 
SGJLSPUSUBJWHO-UHFFFAOYSA-N

>  <csid>  (303) 
114951729

>  <Links>  (303) 
|http://www.chemspider.com/Chemical-Structure.114951729.html|https://www.ebi.ac.uk/chembldb/compound/inspect/CHEMBL4802161|https://pubchem.ncbi.nlm.nih.gov/compound/86279927|https://go.drugbank.com/drugs/DB17456|https://www.guidetopharmacology.org/GRAC/LigandDisplayForward?11189|https://precision.fda.gov/uniisearch/srs/unii/5ZHA5P4PFX

>  <LinkName>  (303) 
|ChemSpider|ChEMBL|PubChem|DrugBank|Guide to Pharmacology|FDA SRS

>  <lig_pdb_ID>  (303) 


>  <pdb_IDs>  (303) 


>  <indicationDB>  (303) 


>  <uniprotId>  (303) 


>  <indicationG2P>  (303) 
None

>  <MW>  (303) 
446.2

>  <HBA>  (303) 
8

>  <HBD>  (303) 
2

>  <NRB>  (303) 
5

>  <TPSA>  (303) 
101.8

>  <LogP>  (303) 
4.0

>  <RoF>  (303) 
0

>  <Melting point>  (303) 
nan

>  <Targets>  (303) 
nan

>  <Kinase families>  (303) 


>  <FDA_approved>  (303) 


$$$$
Tesevatinib
     RDKit          2D

 33 37  0  0  0  0  0  0  0  0999 V2000
   11.2883    0.1438    0.0000 C   0  0  0  0  0  0  0  0  0  0  0  0
    9.7974   -0.0217    0.0000 N   0  0  0  0  0  0  0  0  0  0  0  0
    8.7873    1.0872    0.0000 C   0  0  0  0  0  0  0  0  0  0  0  0
    7.4205    0.4691    0.0000 C   0  0  0  0  0  0  0  0  0  0  0  0
    5.9515    0.7725    0.0000 C   0  0  0  0  0  0  0  0  0  0  0  0
    5.2090   -0.5309    0.0000 C   0  0  0  0  0  0  0  0  0  0  0  0
    6.2192   -1.6398    0.0000 C   0  0  0  0  0  0  0  0  0  0  0  0
    7.5860   -1.0217    0.0000 C   0  0  0  0  0  0  0  0  0  0  0  0
    9.0550   -1.3251    0.0000 C   0  0  0  0  0  0  0  0  0  0  0  0
    3.7182   -0.6963    0.0000 C   0  0  0  0  0  0  0  0  0  0  0  0
    2.8295    0.5120    0.0000 O   0  0  0  0  0  0  0  0  0  0  0  0
    1.3386    0.3466    0.0000 C   0  0  0  0  0  0  0  0  0  0  0  0
    0.7365   -1.0272    0.0000 C   0  0  0  0  0  0  0  0  0  0  0  0
   -0.7543   -1.1927    0.0000 C   0  0  0  0  0  0  0  0  0  0  0  0
   -1.6430    0.0157    0.0000 C   0  0  0  0  0  0  0  0  0  0  0  0
   -1.0409    1.3895    0.0000 C   0  0  0  0  0  0  0  0  0  0  0  0
    0.4499    1.5550    0.0000 C   0  0  0  0  0  0  0  0  0  0  0  0
    1.0521    2.9288    0.0000 O   0  0  0  0  0  0  0  0  0  0  0  0
    2.5429    3.0943    0.0000 C   0  0  0  0  0  0  0  0  0  0  0  0
   -3.1339   -0.1498    0.0000 C   0  0  0  0  0  0  0  0  0  0  0  0
   -3.7360   -1.5236    0.0000 N   0  0  0  0  0  0  0  0  0  0  0  0
   -2.8473   -2.7320    0.0000 C   0  0  0  0  0  0  0  0  0  0  0  0
   -1.3565   -2.5665    0.0000 N   0  0  0  0  0  0  0  0  0  0  0  0
   -4.0226    1.0586    0.0000 N   0  0  0  0  0  0  0  0  0  0  0  0
   -5.5135    0.8932    0.0000 C   0  0  0  0  0  0  0  0  0  0  0  0
   -6.4022    2.1016    0.0000 C   0  0  0  0  0  0  0  0  0  0  0  0
   -7.8930    1.9361    0.0000 C   0  0  0  0  0  0  0  0  0  0  0  0
   -8.4951    0.5623    0.0000 C   0  0  0  0  0  0  0  0  0  0  0  0
   -7.6064   -0.6461    0.0000 C   0  0  0  0  0  0  0  0  0  0  0  0
   -6.1156   -0.4807    0.0000 C   0  0  0  0  0  0  0  0  0  0  0  0
   -5.2269   -1.6890    0.0000 F   0  0  0  0  0  0  0  0  0  0  0  0
   -8.2086   -2.0199    0.0000 Cl  0  0  0  0  0  0  0  0  0  0  0  0
   -9.9860    0.3968    0.0000 Cl  0  0  0  0  0  0  0  0  0  0  0  0
  1  2  1  0
  2  3  1  0
  4  3  1  6
  4  5  1  0
  5  6  1  0
  6  7  1  0
  8  7  1  6
  8  9  1  0
  6 10  1  6
 10 11  1  0
 11 12  1  0
 12 13  2  0
 13 14  1  0
 14 15  2  0
 15 16  1  0
 16 17  2  0
 17 18  1  0
 18 19  1  0
 15 20  1  0
 20 21  2  0
 21 22  1  0
 22 23  2  0
 20 24  1  0
 24 25  1  0
 25 26  2  0
 26 27  1  0
 27 28  2  0
 28 29  1  0
 29 30  2  0
 30 31  1  0
 29 32  1  0
 28 33  1  0
  9  2  1  0
  8  4  1  0
 17 12  1  0
 23 14  1  0
 30 25  1  0
M  END
>  <BrandName>  (304) 


>  <Applicants>  (304) 
Kadmon Corporation

>  <CHEMBL_ID>  (304) 
CHEMBL3544983

>  <Canonical_Smiles>  (304) 
CN1C[C@H]2C[C@H](C[C@H]2C1)COc3cc4c(cc3OC)c(ncn4)Nc5ccc(c(c5F)Cl)Cl

>  <Chirality>  (304) 
Single Stereoisomer

>  <First_Approval>  (304) 
nan

>  <Phase>  (304) 
3.0

>  <SC_Patent>  (304) 
nan

>  <Synonyms>  (304) 
EXEL-7647 | KD-019 | KD-020 | KD019 | TESEVATINIB | XL-647 | XL647

>  <Withdrawn>  (304) 
{''}

>  <Indications>  (304) 
nan

>  <Type>  (304) 
nan

>  <targets_id>  (304) 
P00533|P04626|P35968|P35916|P54760

>  <Inchi>  (304) 
InChI=1S/C24H25Cl2FN4O2/c1-31-9-14-5-13(6-15(14)10-31)11-33-21-8-19-16(7-20(21)32-2)24(29-12-28-19)30-18-4-3-17(25)22(26)23(18)27/h3-4,7-8,12-15H,5-6,9-11H2,1-2H3,(H,28,29,30)/t13-,14-,15+

>  <stdInchikey>  (304) 
HVXKQKFEHMGHSL-QKDCVEJESA-N

>  <csid>  (304) 
32699556

>  <Links>  (304) 
|http://www.chemspider.com/Chemical-Structure.32699556.html|https://www.ebi.ac.uk/chembldb/compound/inspect/CHEMBL3544983|https://go.drugbank.com/drugs/DB11973|https://zinc15.docking.org/substances/ZINC000114456300|https://precision.fda.gov/uniisearch/srs/unii/F6XM2TN5A1|https://www.bindingdb.org/bind/chemsearch/marvin/MolStructure.jsp?monomerid=50524283

>  <LinkName>  (304) 
|ChemSpider|ChEMBL|DrugBank|ZINC|FDA SRS|BindingDB

>  <lig_pdb_ID>  (304) 


>  <pdb_IDs>  (304) 


>  <indicationDB>  (304) 


>  <uniprotId>  (304) 


>  <indicationG2P>  (304) 


>  <MW>  (304) 
490.1

>  <HBA>  (304) 
6

>  <HBD>  (304) 
1

>  <NRB>  (304) 
6

>  <TPSA>  (304) 
59.5

>  <LogP>  (304) 
5.8

>  <RoF>  (304) 
1

>  <Melting point>  (304) 
nan

>  <Targets>  (304) 
EGFR; ERBB2; KDR; FLT4; EPHB4

>  <Kinase families>  (304) 
Tyr

>  <FDA_approved>  (304) 


$$$$
Orantinib
     RDKit          2D

 23 25  0  0  0  0  0  0  0  0999 V2000
   -1.5412    2.7940    0.0000 C   0  0  0  0  0  0  0  0  0  0  0  0
   -1.4754    1.2954    0.0000 C   0  0  0  0  0  0  0  0  0  0  0  0
   -2.6491    0.3614    0.0000 C   0  0  0  0  0  0  0  0  0  0  0  0
   -2.1235   -1.0435    0.0000 C   0  0  0  0  0  0  0  0  0  0  0  0
   -0.6249   -0.9777    0.0000 N   0  0  0  0  0  0  0  0  0  0  0  0
   -0.2244    0.4678    0.0000 C   0  0  0  0  0  0  0  0  0  0  0  0
    1.1805    0.9934    0.0000 C   0  0  0  0  0  0  0  0  0  0  0  0
    2.3382    0.0396    0.0000 C   0  0  0  0  0  0  0  0  0  0  0  0
    3.7903    0.4155    0.0000 C   0  0  0  0  0  0  0  0  0  0  0  0
    4.4826    1.7462    0.0000 C   0  0  0  0  0  0  0  0  0  0  0  0
    5.9812    1.8120    0.0000 C   0  0  0  0  0  0  0  0  0  0  0  0
    6.7874    0.5471    0.0000 C   0  0  0  0  0  0  0  0  0  0  0  0
    6.0951   -0.7836    0.0000 C   0  0  0  0  0  0  0  0  0  0  0  0
    4.5965   -0.8494    0.0000 C   0  0  0  0  0  0  0  0  0  0  0  0
    3.6427   -2.0070    0.0000 N   0  0  0  0  0  0  0  0  0  0  0  0
    2.2469   -1.4576    0.0000 C   0  0  0  0  0  0  0  0  0  0  0  0
    0.9820   -2.2639    0.0000 O   0  0  0  0  0  0  0  0  0  0  0  0
   -2.9511   -2.2946    0.0000 C   0  0  0  0  0  0  0  0  0  0  0  0
   -4.0946    0.7619    0.0000 C   0  0  0  0  0  0  0  0  0  0  0  0
   -5.1643   -0.2898    0.0000 C   0  0  0  0  0  0  0  0  0  0  0  0
   -6.6098    0.1108    0.0000 C   0  0  0  0  0  0  0  0  0  0  0  0
   -6.9857    1.5629    0.0000 O   0  0  0  0  0  0  0  0  0  0  0  0
   -7.6794   -0.9409    0.0000 O   0  0  0  0  0  0  0  0  0  0  0  0
  1  2  1  0
  2  3  1  0
  3  4  2  0
  4  5  1  0
  5  6  1  0
  6  7  1  0
  7  8  2  0
  8  9  1  0
  9 10  2  0
 10 11  1  0
 11 12  2  0
 12 13  1  0
 13 14  2  0
 14 15  1  0
 15 16  1  0
 16 17  2  0
  4 18  1  0
  3 19  1  0
 19 20  1  0
 20 21  1  0
 21 22  2  0
 21 23  1  0
  6  2  2  0
 16  8  1  0
 14  9  1  0
M  END
>  <BrandName>  (305) 


>  <Applicants>  (305) 
Pfizer

>  <CHEMBL_ID>  (305) 
CHEMBL274654

>  <Canonical_Smiles>  (305) 
Cc1c(c([nH]c1/C=C\2/c3ccccc3NC2=O)C)CCC(=O)O

>  <Chirality>  (305) 
Achiral Molecule

>  <First_Approval>  (305) 
nan

>  <Phase>  (305) 
3.0

>  <SC_Patent>  (305) 
nan

>  <Synonyms>  (305) 
NSC-702827 | ORANTINIB | SU-6668 | TSU-68

>  <Withdrawn>  (305) 
{''}

>  <Indications>  (305) 
nan

>  <Type>  (305) 
1

>  <targets_id>  (305) 
P35968|P09619|P11362

>  <Inchi>  (305) 
InChI=1S/C18H18N2O3/c1-10-12(7-8-17(21)22)11(2)19-16(10)9-14-13-5-3-4-6-15(13)20-18(14)23/h3-6,9,19H,7-8H2,1-2H3,(H,20,23)(H,21,22)/b14-9-

>  <stdInchikey>  (305) 
NHFDRBXTEDBWCZ-ZROIWOOFSA-N

>  <csid>  (305) 
4486261

>  <Links>  (305) 
|http://www.chemspider.com/Chemical-Structure.4486261.html|https://www.ebi.ac.uk/chembldb/compound/inspect/CHEMBL274654|https://pubchem.ncbi.nlm.nih.gov/compound/5329099|https://go.drugbank.com/drugs/DB12072|https://www.rcsb.org/ligand/SU6|https://www.ebi.ac.uk/pdbe-srv/pdbechem/chemicalCompound/show/SU6|https://www.guidetopharmacology.org/GRAC/LigandDisplayForward?7816|https://zinc15.docking.org/substances/ZINC000003834032|https://precision.fda.gov/uniisearch/srs/unii/9RL37ZZ665|https://www.bindingdb.org/bind/chemsearch/marvin/MolStructure.jsp?monomerid=4811

>  <LinkName>  (305) 
|ChemSpider|ChEMBL|PubChem|DrugBank|RCSB|PDBe|Guide to Pharmacology|ZINC|FDA SRS|BindingDB

>  <lig_pdb_ID>  (305) 
SU6

>  <pdb_IDs>  (305) 
4jlc 5yvc

>  <indicationDB>  (305) 


>  <uniprotId>  (305) 


>  <indicationG2P>  (305) 
None

>  <MW>  (305) 
310.1

>  <HBA>  (305) 
2

>  <HBD>  (305) 
3

>  <NRB>  (305) 
4

>  <TPSA>  (305) 
82.2

>  <LogP>  (305) 
3.1

>  <RoF>  (305) 
0

>  <Melting point>  (305) 
nan

>  <Targets>  (305) 
KDR; PDGFRB; FGFR1

>  <Kinase families>  (305) 
Tyr

>  <FDA_approved>  (305) 


$$$$
Linsitinib
     RDKit          2D

 32 37  0  0  0  0  0  0  0  0999 V2000
   -5.5026   -5.0677    0.0000 C   0  0  0  0  0  0  0  0  0  0  0  0
   -5.7339   -3.5856    0.0000 C   0  0  0  0  0  0  0  0  0  0  0  0
   -5.9652   -2.1036    0.0000 C   0  0  0  0  0  0  0  0  0  0  0  0
   -4.4831   -1.8723    0.0000 C   0  0  0  0  0  0  0  0  0  0  0  0
   -4.2518   -3.3544    0.0000 C   0  0  0  0  0  0  0  0  0  0  0  0
   -3.5987   -0.6608    0.0000 C   0  0  0  0  0  0  0  0  0  0  0  0
   -4.0590    0.7669    0.0000 N   0  0  0  0  0  0  0  0  0  0  0  0
   -2.8435    1.6458    0.0000 C   0  0  0  0  0  0  0  0  0  0  0  0
   -2.9969    3.1379    0.0000 C   0  0  0  0  0  0  0  0  0  0  0  0
   -4.3658    3.7511    0.0000 N   0  0  0  0  0  0  0  0  0  0  0  0
   -5.5813    2.8722    0.0000 C   0  0  0  0  0  0  0  0  0  0  0  0
   -5.4279    1.3801    0.0000 C   0  0  0  0  0  0  0  0  0  0  0  0
   -1.7813    4.0168    0.0000 N   0  0  0  0  0  0  0  0  0  0  0  0
   -1.6319    0.7613    0.0000 C   0  0  0  0  0  0  0  0  0  0  0  0
   -2.0987   -0.6642    0.0000 N   0  0  0  0  0  0  0  0  0  0  0  0
   -0.2043    1.2216    0.0000 C   0  0  0  0  0  0  0  0  0  0  0  0
    0.9081    0.2154    0.0000 C   0  0  0  0  0  0  0  0  0  0  0  0
    2.3358    0.6757    0.0000 C   0  0  0  0  0  0  0  0  0  0  0  0
    3.4482   -0.3305    0.0000 N   0  0  0  0  0  0  0  0  0  0  0  0
    4.8758    0.1298    0.0000 C   0  0  0  0  0  0  0  0  0  0  0  0
    5.1910    1.5963    0.0000 C   0  0  0  0  0  0  0  0  0  0  0  0
    4.0786    2.6025    0.0000 C   0  0  0  0  0  0  0  0  0  0  0  0
    2.6510    2.1422    0.0000 C   0  0  0  0  0  0  0  0  0  0  0  0
    1.5385    3.1484    0.0000 C   0  0  0  0  0  0  0  0  0  0  0  0
    0.1109    2.6881    0.0000 C   0  0  0  0  0  0  0  0  0  0  0  0
    5.9883   -0.8765    0.0000 C   0  0  0  0  0  0  0  0  0  0  0  0
    5.6731   -2.3430    0.0000 C   0  0  0  0  0  0  0  0  0  0  0  0
    6.7855   -3.3492    0.0000 C   0  0  0  0  0  0  0  0  0  0  0  0
    8.2131   -2.8889    0.0000 C   0  0  0  0  0  0  0  0  0  0  0  0
    8.5283   -1.4224    0.0000 C   0  0  0  0  0  0  0  0  0  0  0  0
    7.4159   -0.4162    0.0000 C   0  0  0  0  0  0  0  0  0  0  0  0
   -7.2160   -3.8169    0.0000 O   0  0  0  0  0  0  0  0  0  0  0  0
  2  1  1  1
  2  3  1  0
  3  4  1  0
  4  5  1  0
  4  6  1  6
  6  7  1  0
  7  8  1  0
  8  9  1  0
  9 10  2  0
 10 11  1  0
 11 12  2  0
  9 13  1  0
  8 14  2  0
 14 15  1  0
 14 16  1  0
 16 17  2  0
 17 18  1  0
 18 19  2  0
 19 20  1  0
 20 21  2  0
 21 22  1  0
 22 23  2  0
 23 24  1  0
 24 25  2  0
 20 26  1  0
 26 27  2  0
 27 28  1  0
 28 29  2  0
 29 30  1  0
 30 31  2  0
  2 32  1  0
  5  2  1  0
 15  6  2  0
 12  7  1  0
 25 16  1  0
 23 18  1  0
 31 26  1  0
M  END
>  <BrandName>  (306) 


>  <Applicants>  (306) 
Osi Pharmaceuticals

>  <CHEMBL_ID>  (306) 
CHEMBL1091644

>  <Canonical_Smiles>  (306) 
C[C@]1(C[C@@H](C1)c2n3c(c(ncc3)N)c(n2)c4cc5nc(ccc5cc4)c6ccccc6)O

>  <Chirality>  (306) 
Single Stereoisomer

>  <First_Approval>  (306) 
nan

>  <Phase>  (306) 
3.0

>  <SC_Patent>  (306) 
nan

>  <Synonyms>  (306) 
ASP-7487 | LINSITINIB | OSI-906 | OSI-906AA

>  <Withdrawn>  (306) 
{'', 'Study NCT01465815 in United States was Withdrawn during PHASE1 because Drug manufacturer, Astellas Pharma, informed us that safety and efficacy of Erlotinib and OSI-906 in other oncology studies was determined to be unfavorable'}

>  <Indications>  (306) 
nan

>  <Type>  (306) 
nan

>  <targets_id>  (306) 
P08069

>  <Inchi>  (306) 
InChI=1S/C26H23N5O/c1-26(32)14-19(15-26)25-30-22(23-24(27)28-11-12-31(23)25)18-8-7-17-9-10-20(29-21(17)13-18)16-5-3-2-4-6-16/h2-13,19,32H,14-15H2,1H3,(H2,27,28)/t19-,26+

>  <stdInchikey>  (306) 
PKCDDUHJAFVJJB-VLZXCDOPSA-N

>  <csid>  (306) 
21391708

>  <Links>  (306) 
|http://www.chemspider.com/Chemical-Structure.21391708.html|https://www.ebi.ac.uk/chembldb/compound/inspect/CHEMBL1091644|https://go.drugbank.com/drugs/DB06075|https://www.guidetopharmacology.org/GRAC/LigandDisplayForward?7423|https://zinc15.docking.org/substances/ZINC000100071817|https://precision.fda.gov/uniisearch/srs/unii/15A52GPT8T|https://www.bindingdb.org/bind/chemsearch/marvin/MolStructure.jsp?monomerid=50315887

>  <LinkName>  (306) 
|ChemSpider|ChEMBL|DrugBank|Guide to Pharmacology|ZINC|FDA SRS|BindingDB

>  <lig_pdb_ID>  (306) 


>  <pdb_IDs>  (306) 


>  <indicationDB>  (306) 


>  <uniprotId>  (306) 


>  <indicationG2P>  (306) 
None

>  <MW>  (306) 
421.2

>  <HBA>  (306) 
6

>  <HBD>  (306) 
2

>  <NRB>  (306) 
3

>  <TPSA>  (306) 
89.3

>  <LogP>  (306) 
4.8

>  <RoF>  (306) 
0

>  <Melting point>  (306) 
nan

>  <Targets>  (306) 
IGF1R

>  <Kinase families>  (306) 
Tyr

>  <FDA_approved>  (306) 


$$$$
Naporafenib
     RDKit          2D

 36 39  0  0  0  0  0  0  0  0999 V2000
    3.0178   -3.6852    0.0000 C   0  0  0  0  0  0  0  0  0  0  0  0
    1.6145   -3.1553    0.0000 C   0  0  0  0  0  0  0  0  0  0  0  0
    0.4539   -4.1057    0.0000 C   0  0  0  0  0  0  0  0  0  0  0  0
   -0.9494   -3.5758    0.0000 C   0  0  0  0  0  0  0  0  0  0  0  0
   -1.1921   -2.0956    0.0000 C   0  0  0  0  0  0  0  0  0  0  0  0
   -2.5954   -1.5657    0.0000 N   0  0  0  0  0  0  0  0  0  0  0  0
   -2.8382   -0.0855    0.0000 C   0  0  0  0  0  0  0  0  0  0  0  0
   -1.6776    0.8649    0.0000 O   0  0  0  0  0  0  0  0  0  0  0  0
   -4.2415    0.4444    0.0000 C   0  0  0  0  0  0  0  0  0  0  0  0
   -4.4842    1.9247    0.0000 C   0  0  0  0  0  0  0  0  0  0  0  0
   -5.8875    2.4545    0.0000 C   0  0  0  0  0  0  0  0  0  0  0  0
   -7.0480    1.5042    0.0000 N   0  0  0  0  0  0  0  0  0  0  0  0
   -6.8053    0.0240    0.0000 C   0  0  0  0  0  0  0  0  0  0  0  0
   -7.9658   -0.9264    0.0000 C   0  0  0  0  0  0  0  0  0  0  0  0
   -9.1264   -1.8767    0.0000 F   0  0  0  0  0  0  0  0  0  0  0  0
   -8.9162    0.2341    0.0000 F   0  0  0  0  0  0  0  0  0  0  0  0
   -7.0155   -2.0869    0.0000 F   0  0  0  0  0  0  0  0  0  0  0  0
   -5.4020   -0.5059    0.0000 C   0  0  0  0  0  0  0  0  0  0  0  0
   -0.0316   -1.1452    0.0000 C   0  0  0  0  0  0  0  0  0  0  0  0
    1.3717   -1.6751    0.0000 C   0  0  0  0  0  0  0  0  0  0  0  0
    2.5322   -0.7247    0.0000 C   0  0  0  0  0  0  0  0  0  0  0  0
    3.9355   -1.2546    0.0000 C   0  0  0  0  0  0  0  0  0  0  0  0
    5.0961   -0.3043    0.0000 C   0  0  0  0  0  0  0  0  0  0  0  0
    6.4994   -0.8342    0.0000 O   0  0  0  0  0  0  0  0  0  0  0  0
    6.7421   -2.3144    0.0000 C   0  0  0  0  0  0  0  0  0  0  0  0
    8.1454   -2.8443    0.0000 C   0  0  0  0  0  0  0  0  0  0  0  0
    8.3882   -4.3245    0.0000 O   0  0  0  0  0  0  0  0  0  0  0  0
    4.8533    1.1760    0.0000 N   0  0  0  0  0  0  0  0  0  0  0  0
    3.4500    1.7058    0.0000 C   0  0  0  0  0  0  0  0  0  0  0  0
    3.2073    3.1861    0.0000 N   0  0  0  0  0  0  0  0  0  0  0  0
    4.3678    4.1364    0.0000 C   0  0  0  0  0  0  0  0  0  0  0  0
    4.1250    5.6166    0.0000 C   0  0  0  0  0  0  0  0  0  0  0  0
    2.7217    6.1465    0.0000 O   0  0  0  0  0  0  0  0  0  0  0  0
    1.5612    5.1962    0.0000 C   0  0  0  0  0  0  0  0  0  0  0  0
    1.8040    3.7159    0.0000 C   0  0  0  0  0  0  0  0  0  0  0  0
    2.2895    0.7555    0.0000 C   0  0  0  0  0  0  0  0  0  0  0  0
  1  2  1  0
  2  3  2  0
  3  4  1  0
  4  5  2  0
  5  6  1  0
  6  7  1  0
  7  8  2  0
  7  9  1  0
  9 10  2  0
 10 11  1  0
 11 12  2  0
 12 13  1  0
 13 14  1  0
 14 15  1  0
 14 16  1  0
 14 17  1  0
 13 18  2  0
  5 19  1  0
 19 20  2  0
 20 21  1  0
 21 22  2  0
 22 23  1  0
 23 24  1  0
 24 25  1  0
 25 26  1  0
 26 27  1  0
 23 28  2  0
 28 29  1  0
 29 30  1  0
 30 31  1  0
 31 32  1  0
 32 33  1  0
 33 34  1  0
 34 35  1  0
 29 36  2  0
 20  2  1  0
 36 21  1  0
 18  9  1  0
 35 30  1  0
M  END
>  <BrandName>  (307) 


>  <Applicants>  (307) 
Novartis

>  <CHEMBL_ID>  (307) 
CHEMBL4583691

>  <Canonical_Smiles>  (307) 
Cc1ccc(NC(=O)c2ccnc(C(F)(F)F)c2)cc1-c1cc(OCCO)nc(N2CCOCC2)c1

>  <Chirality>  (307) 
Achiral Molecule

>  <First_Approval>  (307) 
nan

>  <Phase>  (307) 
3.0

>  <SC_Patent>  (307) 
nan

>  <Synonyms>  (307) 
LXH 254 | LXH-254 | LXH254 | NAPORAFENIB | PAN-RAF INHIBITOR LXH254

>  <Withdrawn>  (307) 
{''}

>  <Indications>  (307) 
nan

>  <Type>  (307) 
nan

>  <targets_id>  (307) 
nan

>  <Inchi>  (307) 
InChI=1S/C25H25F3N4O4/c1-16-2-3-19(30-24(34)17-4-5-29-21(12-17)25(26,27)28)15-20(16)18-13-22(32-6-9-35-10-7-32)31-23(14-18)36-11-8-33/h2-5,12-15,33H,6-11H2,1H3,(H,30,34)

>  <stdInchikey>  (307) 
UEPXBTCUIIGYCY-UHFFFAOYSA-N

>  <csid>  (307) 
67886371

>  <Links>  (307) 
|http://www.chemspider.com/Chemical-Structure.67886371.html|https://www.ebi.ac.uk/chembldb/compound/inspect/CHEMBL4583691|https://pubchem.ncbi.nlm.nih.gov/compound/90456533|https://www.rcsb.org/ligand/K81|https://www.ebi.ac.uk/pdbe-srv/pdbechem/chemicalCompound/show/K81|https://www.guidetopharmacology.org/GRAC/LigandDisplayForward?10658|https://precision.fda.gov/uniisearch/srs/unii/15JL80DG6H|https://www.bindingdb.org/bind/chemsearch/marvin/MolStructure.jsp?monomerid=88120

>  <LinkName>  (307) 
|ChemSpider|ChEMBL|PubChem|RCSB|PDBe|Guide to Pharmacology|FDA SRS|BindingDB

>  <lig_pdb_ID>  (307) 
K81

>  <pdb_IDs>  (307) 
6n0p 8f7p

>  <indicationDB>  (307) 


>  <uniprotId>  (307) 


>  <indicationG2P>  (307) 
None

>  <MW>  (307) 
502.2

>  <HBA>  (307) 
7

>  <HBD>  (307) 
2

>  <NRB>  (307) 
7

>  <TPSA>  (307) 
96.8

>  <LogP>  (307) 
3.9

>  <RoF>  (307) 
1

>  <Melting point>  (307) 
nan

>  <Targets>  (307) 
nan

>  <Kinase families>  (307) 


>  <FDA_approved>  (307) 


$$$$
Canertinib
     RDKit          2D

 34 37  0  0  0  0  0  0  0  0999 V2000
    0.8839    6.2025    0.0000 C   0  0  0  0  0  0  0  0  0  0  0  0
   -0.1652    5.1304    0.0000 C   0  0  0  0  0  0  0  0  0  0  0  0
    0.2388    3.6858    0.0000 C   0  0  0  0  0  0  0  0  0  0  0  0
    1.6918    3.3134    0.0000 O   0  0  0  0  0  0  0  0  0  0  0  0
   -0.8102    2.6137    0.0000 N   0  0  0  0  0  0  0  0  0  0  0  0
   -0.4063    1.1691    0.0000 C   0  0  0  0  0  0  0  0  0  0  0  0
    1.0468    0.7966    0.0000 C   0  0  0  0  0  0  0  0  0  0  0  0
    1.4507   -0.6479    0.0000 C   0  0  0  0  0  0  0  0  0  0  0  0
    0.4017   -1.7201    0.0000 C   0  0  0  0  0  0  0  0  0  0  0  0
   -1.0514   -1.3476    0.0000 C   0  0  0  0  0  0  0  0  0  0  0  0
   -1.4553    0.0969    0.0000 C   0  0  0  0  0  0  0  0  0  0  0  0
   -2.9084    0.4694    0.0000 O   0  0  0  0  0  0  0  0  0  0  0  0
   -3.9574   -0.6028    0.0000 C   0  0  0  0  0  0  0  0  0  0  0  0
   -5.4104   -0.2303    0.0000 C   0  0  0  0  0  0  0  0  0  0  0  0
   -6.4595   -1.3025    0.0000 C   0  0  0  0  0  0  0  0  0  0  0  0
   -7.9125   -0.9300    0.0000 N   0  0  0  0  0  0  0  0  0  0  0  0
   -8.3165    0.5146    0.0000 C   0  0  0  0  0  0  0  0  0  0  0  0
   -9.7695    0.8870    0.0000 C   0  0  0  0  0  0  0  0  0  0  0  0
  -10.8186   -0.1851    0.0000 O   0  0  0  0  0  0  0  0  0  0  0  0
  -10.4146   -1.6297    0.0000 C   0  0  0  0  0  0  0  0  0  0  0  0
   -8.9616   -2.0022    0.0000 C   0  0  0  0  0  0  0  0  0  0  0  0
    0.8056   -3.1647    0.0000 N   0  0  0  0  0  0  0  0  0  0  0  0
    2.2587   -3.5371    0.0000 C   0  0  0  0  0  0  0  0  0  0  0  0
    3.3077   -2.4650    0.0000 N   0  0  0  0  0  0  0  0  0  0  0  0
    2.9038   -1.0204    0.0000 C   0  0  0  0  0  0  0  0  0  0  0  0
    3.9528    0.0518    0.0000 N   0  0  0  0  0  0  0  0  0  0  0  0
    5.4058   -0.3207    0.0000 C   0  0  0  0  0  0  0  0  0  0  0  0
    5.8098   -1.7653    0.0000 C   0  0  0  0  0  0  0  0  0  0  0  0
    7.2628   -2.1377    0.0000 C   0  0  0  0  0  0  0  0  0  0  0  0
    8.3119   -1.0656    0.0000 C   0  0  0  0  0  0  0  0  0  0  0  0
    7.9079    0.3790    0.0000 C   0  0  0  0  0  0  0  0  0  0  0  0
    6.4549    0.7515    0.0000 C   0  0  0  0  0  0  0  0  0  0  0  0
    8.9570    1.4511    0.0000 Cl  0  0  0  0  0  0  0  0  0  0  0  0
    9.7649   -1.4380    0.0000 F   0  0  0  0  0  0  0  0  0  0  0  0
  1  2  2  0
  2  3  1  0
  3  4  2  0
  3  5  1  0
  5  6  1  0
  6  7  2  0
  7  8  1  0
  8  9  2  0
  9 10  1  0
 10 11  2  0
 11 12  1  0
 12 13  1  0
 13 14  1  0
 14 15  1  0
 15 16  1  0
 16 17  1  0
 17 18  1  0
 18 19  1  0
 19 20  1  0
 20 21  1  0
  9 22  1  0
 22 23  2  0
 23 24  1  0
 24 25  2  0
 25 26  1  0
 26 27  1  0
 27 28  2  0
 28 29  1  0
 29 30  2  0
 30 31  1  0
 31 32  2  0
 31 33  1  0
 30 34  1  0
 11  6  1  0
 25  8  1  0
 21 16  1  0
 32 27  1  0
M  END
>  <BrandName>  (308) 


>  <Applicants>  (308) 
Pfizer

>  <CHEMBL_ID>  (308) 
CHEMBL31965

>  <Canonical_Smiles>  (308) 
C=CC(=O)Nc1cc2c(cc1OCCCN3CCOCC3)ncnc2Nc4ccc(c(c4)Cl)F

>  <Chirality>  (308) 
Achiral Molecule

>  <First_Approval>  (308) 
nan

>  <Phase>  (308) 
3.0

>  <SC_Patent>  (308) 
nan

>  <Synonyms>  (308) 
CANERTINIB | CI-1033

>  <Withdrawn>  (308) 
nan

>  <Indications>  (308) 
Investigated for use/treatment in breast cancer and lung cancer.

>  <Type>  (308) 
nan

>  <targets_id>  (308) 
P00533

>  <Inchi>  (308) 
InChI=1S/C24H25ClFN5O3/c1-2-23(32)30-21-13-17-20(14-22(21)34-9-3-6-31-7-10-33-11-8-31)27-15-28-24(17)29-16-4-5-19(26)18(25)12-16/h2,4-5,12-15H,1,3,6-11H2,(H,30,32)(H,27,28,29)

>  <stdInchikey>  (308) 
OMZCMEYTWSXEPZ-UHFFFAOYSA-N

>  <csid>  (308) 
137741

>  <Links>  (308) 
|http://www.chemspider.com/Chemical-Structure.137741.html|https://www.ebi.ac.uk/chembldb/compound/inspect/CHEMBL31965|https://pubchem.ncbi.nlm.nih.gov/compound/156414|https://go.drugbank.com/drugs/DB05424|https://www.guidetopharmacology.org/GRAC/LigandDisplayForward?5675|https://zinc15.docking.org/substances/ZINC000027439698|https://precision.fda.gov/uniisearch/srs/unii/C78W1K5ASF|https://www.bindingdb.org/bind/chemsearch/marvin/MolStructure.jsp?monomerid=4779

>  <LinkName>  (308) 
|ChemSpider|ChEMBL|PubChem|DrugBank|Guide to Pharmacology|ZINC|FDA SRS|BindingDB

>  <lig_pdb_ID>  (308) 


>  <pdb_IDs>  (308) 


>  <indicationDB>  (308) 


>  <uniprotId>  (308) 


>  <indicationG2P>  (308) 
None

>  <MW>  (308) 
485.2

>  <HBA>  (308) 
7

>  <HBD>  (308) 
2

>  <NRB>  (308) 
9

>  <TPSA>  (308) 
88.6

>  <LogP>  (308) 
4.4

>  <RoF>  (308) 
0

>  <Melting point>  (308) 
nan

>  <Targets>  (308) 
EGFR

>  <Kinase families>  (308) 
Tyr

>  <FDA_approved>  (308) 


$$$$
Tunlametinib
     RDKit          2D

 26 28  0  0  0  0  0  0  0  0999 V2000
    1.6598    1.9383    0.0000 O   0  0  0  0  0  0  0  0  0  0  0  0
    2.1729    0.5288    0.0000 C   0  0  0  0  0  0  0  0  0  0  0  0
    3.6501    0.2683    0.0000 N   0  0  0  0  0  0  0  0  0  0  0  0
    4.6143    1.4174    0.0000 O   0  0  0  0  0  0  0  0  0  0  0  0
    6.0915    1.1570    0.0000 C   0  0  0  0  0  0  0  0  0  0  0  0
    7.0556    2.3060    0.0000 C   0  0  0  0  0  0  0  0  0  0  0  0
    8.5329    2.0456    0.0000 O   0  0  0  0  0  0  0  0  0  0  0  0
    1.2087   -0.6203    0.0000 C   0  0  0  0  0  0  0  0  0  0  0  0
    1.7218   -2.0299    0.0000 C   0  0  0  0  0  0  0  0  0  0  0  0
    0.7576   -3.1789    0.0000 C   0  0  0  0  0  0  0  0  0  0  0  0
    0.9664   -4.6643    0.0000 S   0  0  0  0  0  0  0  0  0  0  0  0
   -0.3818   -5.3219    0.0000 C   0  0  0  0  0  0  0  0  0  0  0  0
   -1.4238   -4.2429    0.0000 N   0  0  0  0  0  0  0  0  0  0  0  0
   -0.7196   -2.9185    0.0000 C   0  0  0  0  0  0  0  0  0  0  0  0
   -1.2326   -1.5090    0.0000 C   0  0  0  0  0  0  0  0  0  0  0  0
   -2.7099   -1.2485    0.0000 F   0  0  0  0  0  0  0  0  0  0  0  0
   -0.2685   -0.3599    0.0000 C   0  0  0  0  0  0  0  0  0  0  0  0
   -0.7815    1.0496    0.0000 N   0  0  0  0  0  0  0  0  0  0  0  0
   -2.2588    1.3101    0.0000 C   0  0  0  0  0  0  0  0  0  0  0  0
   -3.2229    0.1610    0.0000 C   0  0  0  0  0  0  0  0  0  0  0  0
   -4.7001    0.4214    0.0000 C   0  0  0  0  0  0  0  0  0  0  0  0
   -5.2132    1.8310    0.0000 C   0  0  0  0  0  0  0  0  0  0  0  0
   -6.6904    2.0914    0.0000 I   0  0  0  0  0  0  0  0  0  0  0  0
   -4.2490    2.9800    0.0000 C   0  0  0  0  0  0  0  0  0  0  0  0
   -2.7718    2.7196    0.0000 C   0  0  0  0  0  0  0  0  0  0  0  0
   -1.8077    3.8687    0.0000 F   0  0  0  0  0  0  0  0  0  0  0  0
  1  2  2  0
  2  3  1  0
  3  4  1  0
  4  5  1  0
  5  6  1  0
  6  7  1  0
  2  8  1  0
  8  9  2  0
  9 10  1  0
 10 11  1  0
 11 12  1  0
 12 13  2  0
 13 14  1  0
 14 15  1  0
 15 16  1  0
 15 17  2  0
 17 18  1  0
 18 19  1  0
 19 20  2  0
 20 21  1  0
 21 22  2  0
 22 23  1  0
 22 24  1  0
 24 25  2  0
 25 26  1  0
 17  8  1  0
 25 19  1  0
 14 10  2  0
M  END
>  <BrandName>  (309) 


>  <Applicants>  (309) 
Tianjin Binjiang Pharma

>  <CHEMBL_ID>  (309) 
CHEMBL5095241

>  <Canonical_Smiles>  (309) 
O=C(NOCCO)c1cc2scnc2c(F)c1Nc1ccc(I)cc1F

>  <Chirality>  (309) 
Achiral Molecule

>  <First_Approval>  (309) 
nan

>  <Phase>  (309) 
3.0

>  <SC_Patent>  (309) 
nan

>  <Synonyms>  (309) 
HL 085 | HL-085 | HL085 | TUNLAMETINIB

>  <Withdrawn>  (309) 
{''}

>  <Indications>  (309) 
nan

>  <Type>  (309) 
nan

>  <targets_id>  (309) 
nan

>  <Inchi>  (309) 
InChI=1S/C16H12F2IN3O3S/c17-10-5-8(19)1-2-11(10)21-14-9(16(24)22-25-4-3-23)6-12-15(13(14)18)20-7-26-12/h1-2,5-7,21,23H,3-4H2,(H,22,24)

>  <stdInchikey>  (309) 
UFZJUVFSSINETF-UHFFFAOYSA-N

>  <csid>  (309) 
115006753

>  <Links>  (309) 
|http://www.chemspider.com/Chemical-Structure.115006753.html|https://www.ebi.ac.uk/chembldb/compound/inspect/CHEMBL5095241|https://pubchem.ncbi.nlm.nih.gov/compound/71621329|https://precision.fda.gov/uniisearch/srs/unii/IF25NR1PV3

>  <LinkName>  (309) 
|ChemSpider|ChEMBL|PubChem|FDA SRS

>  <lig_pdb_ID>  (309) 


>  <pdb_IDs>  (309) 


>  <indicationDB>  (309) 


>  <uniprotId>  (309) 


>  <indicationG2P>  (309) 


>  <MW>  (309) 
491.0

>  <HBA>  (309) 
6

>  <HBD>  (309) 
3

>  <NRB>  (309) 
6

>  <TPSA>  (309) 
83.5

>  <LogP>  (309) 
3.6

>  <RoF>  (309) 
0

>  <Melting point>  (309) 
nan

>  <Targets>  (309) 
nan

>  <Kinase families>  (309) 


>  <FDA_approved>  (309) 


$$$$
Taletrectinib
     RDKit          2D

 30 33  0  0  0  0  0  0  0  0999 V2000
   -8.3288    3.7356    0.0000 C   0  0  0  0  0  0  0  0  0  0  0  0
   -8.1550    2.2457    0.0000 C   0  0  0  0  0  0  0  0  0  0  0  0
   -9.3584    1.3503    0.0000 N   0  0  0  0  0  0  0  0  0  0  0  0
   -6.7778    1.6513    0.0000 C   0  0  0  0  0  0  0  0  0  0  0  0
   -6.6040    0.1614    0.0000 O   0  0  0  0  0  0  0  0  0  0  0  0
   -5.2268   -0.4331    0.0000 C   0  0  0  0  0  0  0  0  0  0  0  0
   -4.0234    0.4624    0.0000 C   0  0  0  0  0  0  0  0  0  0  0  0
   -2.6463   -0.1321    0.0000 C   0  0  0  0  0  0  0  0  0  0  0  0
   -2.4725   -1.6220    0.0000 C   0  0  0  0  0  0  0  0  0  0  0  0
   -1.0953   -2.2164    0.0000 C   0  0  0  0  0  0  0  0  0  0  0  0
   -0.7667   -3.6800    0.0000 C   0  0  0  0  0  0  0  0  0  0  0  0
    0.7267   -3.8198    0.0000 N   0  0  0  0  0  0  0  0  0  0  0  0
    1.3212   -2.4426    0.0000 C   0  0  0  0  0  0  0  0  0  0  0  0
    2.7424   -1.9629    0.0000 C   0  0  0  0  0  0  0  0  0  0  0  0
    3.0375   -0.4922    0.0000 C   0  0  0  0  0  0  0  0  0  0  0  0
    1.9114    0.4987    0.0000 C   0  0  0  0  0  0  0  0  0  0  0  0
    2.2066    1.9694    0.0000 N   0  0  0  0  0  0  0  0  0  0  0  0
    3.6278    2.4492    0.0000 C   0  0  0  0  0  0  0  0  0  0  0  0
    3.9229    3.9198    0.0000 C   0  0  0  0  0  0  0  0  0  0  0  0
    4.7539    1.4582    0.0000 C   0  0  0  0  0  0  0  0  0  0  0  0
    4.4587   -0.0125    0.0000 C   0  0  0  0  0  0  0  0  0  0  0  0
    5.5848   -1.0034    0.0000 C   0  0  0  0  0  0  0  0  0  0  0  0
    7.0060   -0.5236    0.0000 C   0  0  0  0  0  0  0  0  0  0  0  0
    7.3012    0.9470    0.0000 C   0  0  0  0  0  0  0  0  0  0  0  0
    8.7224    1.4268    0.0000 F   0  0  0  0  0  0  0  0  0  0  0  0
    6.1751    1.9380    0.0000 C   0  0  0  0  0  0  0  0  0  0  0  0
    0.4902    0.0190    0.0000 N   0  0  0  0  0  0  0  0  0  0  0  0
    0.1951   -1.4517    0.0000 N   0  0  0  0  0  0  0  0  0  0  0  0
   -3.6759   -2.5174    0.0000 C   0  0  0  0  0  0  0  0  0  0  0  0
   -5.0531   -1.9230    0.0000 C   0  0  0  0  0  0  0  0  0  0  0  0
  2  1  1  6
  2  3  1  0
  2  4  1  0
  4  5  1  0
  5  6  1  0
  6  7  2  0
  7  8  1  0
  8  9  2  0
  9 10  1  0
 10 11  2  0
 11 12  1  0
 12 13  2  0
 13 14  1  0
 14 15  2  0
 15 16  1  0
 16 17  1  0
 17 18  1  0
 18 19  1  6
 18 20  1  0
 20 21  2  0
 21 22  1  0
 22 23  2  0
 23 24  1  0
 24 25  1  0
 24 26  2  0
 16 27  2  0
 27 28  1  0
  9 29  1  0
 29 30  2  0
 30  6  1  0
 28 10  1  0
 28 13  1  0
 26 20  1  0
M  END
>  <BrandName>  (310) 


>  <Applicants>  (310) 
Daiichi Sankyo

>  <CHEMBL_ID>  (310) 
CHEMBL4650989

>  <Canonical_Smiles>  (310) 
C[C@@H](N)COc1ccc(-c2cnc3ccc(N[C@H](C)c4cccc(F)c4)nn23)cc1

>  <Chirality>  (310) 
Single Stereoisomer

>  <First_Approval>  (310) 
nan

>  <Phase>  (310) 
3.0

>  <SC_Patent>  (310) 
nan

>  <Synonyms>  (310) 
AB-106 | DS-6051 | DS-6051A | TALETRECTINIB

>  <Withdrawn>  (310) 
{''}

>  <Indications>  (310) 
nan

>  <Type>  (310) 
nan

>  <targets_id>  (310) 
nan

>  <Inchi>  (310) 
InChI=1S/C23H24FN5O/c1-15(25)14-30-20-8-6-17(7-9-20)21-13-26-23-11-10-22(28-29(21)23)27-16(2)18-4-3-5-19(24)12-18/h3-13,15-16H,14,25H2,1-2H3,(H,27,28)/t15-,16-/m1/s1

>  <stdInchikey>  (310) 
HEVHTYMYEMEBPX-HZPDHXFCSA-N

>  <csid>  (310) 
88297530

>  <Links>  (310) 
|http://www.chemspider.com/Chemical-Structure.88297530.html|https://www.ebi.ac.uk/chembldb/compound/inspect/CHEMBL4650989|https://pubchem.ncbi.nlm.nih.gov/compound/72202474|https://precision.fda.gov/uniisearch/srs/unii/W4141180YD

>  <LinkName>  (310) 
|ChemSpider|ChEMBL|PubChem|FDA SRS

>  <lig_pdb_ID>  (310) 


>  <pdb_IDs>  (310) 


>  <indicationDB>  (310) 


>  <uniprotId>  (310) 


>  <indicationG2P>  (310) 


>  <MW>  (310) 
405.2

>  <HBA>  (310) 
6

>  <HBD>  (310) 
2

>  <NRB>  (310) 
7

>  <TPSA>  (310) 
77.5

>  <LogP>  (310) 
4.4

>  <RoF>  (310) 
0

>  <Melting point>  (310) 
nan

>  <Targets>  (310) 
nan

>  <Kinase families>  (310) 


>  <FDA_approved>  (310) 


$$$$
Taselisib
     RDKit          2D

 34 38  0  0  0  0  0  0  0  0999 V2000
   -6.6288   -4.9243    0.0000 C   0  0  0  0  0  0  0  0  0  0  0  0
   -6.3787   -3.4453    0.0000 C   0  0  0  0  0  0  0  0  0  0  0  0
   -5.0352   -2.7782    0.0000 N   0  0  0  0  0  0  0  0  0  0  0  0
   -5.2544   -1.2943    0.0000 C   0  0  0  0  0  0  0  0  0  0  0  0
   -6.7334   -1.0443    0.0000 N   0  0  0  0  0  0  0  0  0  0  0  0
   -7.4283   -2.3736    0.0000 N   0  0  0  0  0  0  0  0  0  0  0  0
   -7.4005    0.2993    0.0000 C   0  0  0  0  0  0  0  0  0  0  0  0
   -8.8975    0.3934    0.0000 C   0  0  0  0  0  0  0  0  0  0  0  0
   -6.5705    1.5487    0.0000 C   0  0  0  0  0  0  0  0  0  0  0  0
   -4.1828   -0.2448    0.0000 C   0  0  0  0  0  0  0  0  0  0  0  0
   -4.4020    1.2391    0.0000 C   0  0  0  0  0  0  0  0  0  0  0  0
   -3.0585    1.9062    0.0000 N   0  0  0  0  0  0  0  0  0  0  0  0
   -2.0089    0.8345    0.0000 C   0  0  0  0  0  0  0  0  0  0  0  0
   -2.7038   -0.4948    0.0000 N   0  0  0  0  0  0  0  0  0  0  0  0
   -0.5167    0.9870    0.0000 C   0  0  0  0  0  0  0  0  0  0  0  0
    0.1704   -0.3464    0.0000 C   0  0  0  0  0  0  0  0  0  0  0  0
    1.6687   -0.4181    0.0000 C   0  0  0  0  0  0  0  0  0  0  0  0
    2.4799    0.8436    0.0000 C   0  0  0  0  0  0  0  0  0  0  0  0
    1.7928    2.1770    0.0000 C   0  0  0  0  0  0  0  0  0  0  0  0
    0.2946    2.2487    0.0000 C   0  0  0  0  0  0  0  0  0  0  0  0
   -0.1861    3.6696    0.0000 O   0  0  0  0  0  0  0  0  0  0  0  0
   -1.5967    4.1797    0.0000 C   0  0  0  0  0  0  0  0  0  0  0  0
   -2.8750    3.3949    0.0000 C   0  0  0  0  0  0  0  0  0  0  0  0
    3.9782    0.7719    0.0000 C   0  0  0  0  0  0  0  0  0  0  0  0
    4.9169    1.9419    0.0000 C   0  0  0  0  0  0  0  0  0  0  0  0
    6.3197    1.4107    0.0000 N   0  0  0  0  0  0  0  0  0  0  0  0
    6.2480   -0.0876    0.0000 N   0  0  0  0  0  0  0  0  0  0  0  0
    4.8009   -0.4824    0.0000 C   0  0  0  0  0  0  0  0  0  0  0  0
    7.4180   -1.0262    0.0000 C   0  0  0  0  0  0  0  0  0  0  0  0
    6.4793   -2.1962    0.0000 C   0  0  0  0  0  0  0  0  0  0  0  0
    8.3566    0.1438    0.0000 C   0  0  0  0  0  0  0  0  0  0  0  0
    8.5880   -1.9649    0.0000 C   0  0  0  0  0  0  0  0  0  0  0  0
    8.3601   -3.4475    0.0000 O   0  0  0  0  0  0  0  0  0  0  0  0
    9.9859   -1.4210    0.0000 N   0  0  0  0  0  0  0  0  0  0  0  0
  1  2  1  0
  2  3  1  0
  3  4  2  0
  4  5  1  0
  5  6  1  0
  5  7  1  0
  7  8  1  0
  7  9  1  0
  4 10  1  0
 10 11  2  0
 11 12  1  0
 12 13  1  0
 13 14  2  0
 13 15  1  0
 15 16  2  0
 16 17  1  0
 17 18  2  0
 18 19  1  0
 19 20  2  0
 20 21  1  0
 21 22  1  0
 22 23  1  0
 18 24  1  0
 24 25  1  0
 25 26  2  0
 26 27  1  0
 27 28  1  0
 27 29  1  0
 29 30  1  0
 29 31  1  0
 29 32  1  0
 32 33  2  0
 32 34  1  0
  6  2  2  0
 14 10  1  0
 23 12  1  0
 20 15  1  0
 28 24  2  0
M  END
>  <BrandName>  (311) 


>  <Applicants>  (311) 
Hoffmann-La Roche

>  <CHEMBL_ID>  (311) 
CHEMBL2387080

>  <Canonical_Smiles>  (311) 
Cc1nc(n(n1)C(C)C)c2cn3c(n2)-c4ccc(cc4OCC3)c5cnn(c5)C(C)(C)C(=O)N

>  <Chirality>  (311) 
Racemic Mixture

>  <First_Approval>  (311) 
nan

>  <Phase>  (311) 
3.0

>  <SC_Patent>  (311) 
nan

>  <Synonyms>  (311) 
GDC-0032 | RG-7604 | TASELISIB

>  <Withdrawn>  (311) 
{''}

>  <Indications>  (311) 
nan

>  <Type>  (311) 
1

>  <targets_id>  (311) 
P42336|O00329|P48736

>  <Inchi>  (311) 
InChI=1S/C24H28N8O2/c1-14(2)32-22(27-15(3)29-32)19-13-30-8-9-34-20-10-16(6-7-18(20)21(30)28-19)17-11-26-31(12-17)24(4,5)23(25)33/h6-7,10-14H,8-9H2,1-5H3,(H2,25,33)

>  <stdInchikey>  (311) 
BEUQXVWXFDOSAQ-UHFFFAOYSA-N

>  <csid>  (311) 
29315044

>  <Links>  (311) 
|http://www.chemspider.com/Chemical-Structure.29315044.html|https://www.ebi.ac.uk/chembldb/compound/inspect/CHEMBL2387080|https://pubchem.ncbi.nlm.nih.gov/compound/51001932|https://go.drugbank.com/drugs/DB12108|https://www.rcsb.org/ligand/799|https://www.ebi.ac.uk/pdbe-srv/pdbechem/chemicalCompound/show/799|https://www.guidetopharmacology.org/GRAC/LigandDisplayForward?7794|https://zinc15.docking.org/substances/ZINC000068267049|https://precision.fda.gov/uniisearch/srs/unii/L08J2O299M|https://www.bindingdb.org/bind/chemsearch/marvin/MolStructure.jsp?monomerid=50434806

>  <LinkName>  (311) 
|ChemSpider|ChEMBL|PubChem|DrugBank|RCSB|PDBe|Guide to Pharmacology|ZINC|FDA SRS|BindingDB

>  <lig_pdb_ID>  (311) 
799

>  <pdb_IDs>  (311) 
5t8f 8exl

>  <indicationDB>  (311) 


>  <uniprotId>  (311) 


>  <indicationG2P>  (311) 
None

>  <MW>  (311) 
460.2

>  <HBA>  (311) 
9

>  <HBD>  (311) 
1

>  <NRB>  (311) 
5

>  <TPSA>  (311) 
118.7

>  <LogP>  (311) 
3.2

>  <RoF>  (311) 
0

>  <Melting point>  (311) 
nan

>  <Targets>  (311) 
PIK3CA; PIK3CD; PIK3CG

>  <Kinase families>  (311) 
Atypical

>  <FDA_approved>  (311) 


$$$$
Cediranib
     RDKit          2D

 33 37  0  0  0  0  0  0  0  0999 V2000
   10.6913    0.8056    0.0000 C   0  0  0  0  0  0  0  0  0  0  0  0
    9.2389    0.4307    0.0000 C   0  0  0  0  0  0  0  0  0  0  0  0
    8.0819    1.3853    0.0000 C   0  0  0  0  0  0  0  0  0  0  0  0
    6.8165    0.5800    0.0000 C   0  0  0  0  0  0  0  0  0  0  0  0
    7.1914   -0.8724    0.0000 C   0  0  0  0  0  0  0  0  0  0  0  0
    8.6885   -0.9647    0.0000 N   0  0  0  0  0  0  0  0  0  0  0  0
    6.1210   -1.9233    0.0000 C   0  0  0  0  0  0  0  0  0  0  0  0
    4.6758   -1.5218    0.0000 C   0  0  0  0  0  0  0  0  0  0  0  0
    4.3009   -0.0694    0.0000 C   0  0  0  0  0  0  0  0  0  0  0  0
    5.3712    0.9815    0.0000 C   0  0  0  0  0  0  0  0  0  0  0  0
    4.9963    2.4339    0.0000 F   0  0  0  0  0  0  0  0  0  0  0  0
    2.8556    0.3321    0.0000 O   0  0  0  0  0  0  0  0  0  0  0  0
    1.7852   -0.7187    0.0000 C   0  0  0  0  0  0  0  0  0  0  0  0
    0.3400   -0.3172    0.0000 C   0  0  0  0  0  0  0  0  0  0  0  0
   -0.0349    1.1352    0.0000 C   0  0  0  0  0  0  0  0  0  0  0  0
   -1.4802    1.5367    0.0000 C   0  0  0  0  0  0  0  0  0  0  0  0
   -2.5505    0.4858    0.0000 C   0  0  0  0  0  0  0  0  0  0  0  0
   -2.1756   -0.9666    0.0000 C   0  0  0  0  0  0  0  0  0  0  0  0
   -0.7304   -1.3681    0.0000 C   0  0  0  0  0  0  0  0  0  0  0  0
   -0.3555   -2.8205    0.0000 N   0  0  0  0  0  0  0  0  0  0  0  0
    1.0898   -3.2220    0.0000 C   0  0  0  0  0  0  0  0  0  0  0  0
    2.1601   -2.1711    0.0000 N   0  0  0  0  0  0  0  0  0  0  0  0
   -3.9958    0.8873    0.0000 O   0  0  0  0  0  0  0  0  0  0  0  0
   -5.0662   -0.1635    0.0000 C   0  0  0  0  0  0  0  0  0  0  0  0
   -6.5114    0.2380    0.0000 C   0  0  0  0  0  0  0  0  0  0  0  0
   -7.5818   -0.8129    0.0000 C   0  0  0  0  0  0  0  0  0  0  0  0
   -9.0270   -0.4114    0.0000 N   0  0  0  0  0  0  0  0  0  0  0  0
  -10.2014   -1.3446    0.0000 C   0  0  0  0  0  0  0  0  0  0  0  0
  -11.4518   -0.5161    0.0000 C   0  0  0  0  0  0  0  0  0  0  0  0
  -11.0503    0.9291    0.0000 C   0  0  0  0  0  0  0  0  0  0  0  0
   -9.5517    0.9939    0.0000 C   0  0  0  0  0  0  0  0  0  0  0  0
   -1.8551    2.9891    0.0000 O   0  0  0  0  0  0  0  0  0  0  0  0
   -0.7847    4.0400    0.0000 C   0  0  0  0  0  0  0  0  0  0  0  0
  1  2  1  0
  2  3  2  0
  3  4  1  0
  4  5  2  0
  5  6  1  0
  5  7  1  0
  7  8  2  0
  8  9  1  0
  9 10  2  0
 10 11  1  0
  9 12  1  0
 12 13  1  0
 13 14  1  0
 14 15  2  0
 15 16  1  0
 16 17  2  0
 17 18  1  0
 18 19  2  0
 19 20  1  0
 20 21  2  0
 21 22  1  0
 17 23  1  0
 23 24  1  0
 24 25  1  0
 25 26  1  0
 26 27  1  0
 27 28  1  0
 28 29  1  0
 29 30  1  0
 30 31  1  0
 16 32  1  0
 32 33  1  0
  6  2  1  0
 10  4  1  0
 22 13  2  0
 19 14  1  0
 31 27  1  0
M  END
>  <BrandName>  (312) 
Recentin

>  <Applicants>  (312) 
Astrazeneca

>  <CHEMBL_ID>  (312) 
CHEMBL491473

>  <Canonical_Smiles>  (312) 
Cc1cc2c([nH]1)ccc(c2F)Oc3c4cc(c(cc4ncn3)OCCCN5CCCC5)OC

>  <Chirality>  (312) 
Achiral Molecule

>  <First_Approval>  (312) 
nan

>  <Phase>  (312) 
3.0

>  <SC_Patent>  (312) 
nan

>  <Synonyms>  (312) 
AZD-2171 | AZD2171 | CEDIRANIB | RECENTIN | ZD-2171

>  <Withdrawn>  (312) 
{'', 'Study NCT04184518 in Spain was Withdrawn during PHASE2 because The Cediranib producer laboratory decided to stop the development of this product'}

>  <Indications>  (312) 
For the treatment of liver cancer, advanced non-small cell lung cancer (NSCLC), advanced colorectal cancer (CRC) and other solid tumors.

>  <Type>  (312) 
nan

>  <targets_id>  (312) 
P35968

>  <Inchi>  (312) 
InChI=1S/C25H27FN4O3/c1-16-12-17-19(29-16)6-7-21(24(17)26)33-25-18-13-22(31-2)23(14-20(18)27-15-28-25)32-11-5-10-30-8-3-4-9-30/h6-7,12-15,29H,3-5,8-11H2,1-2H3

>  <stdInchikey>  (312) 
XXJWYDDUDKYVKI-UHFFFAOYSA-N

>  <csid>  (312) 
8109103

>  <Links>  (312) 
|http://www.chemspider.com/Chemical-Structure.8109103.html|https://www.ebi.ac.uk/chembldb/compound/inspect/CHEMBL491473|https://pubchem.ncbi.nlm.nih.gov/compound/9933475|https://go.drugbank.com/drugs/DB04849|https://www.guidetopharmacology.org/GRAC/LigandDisplayForward?5664|https://zinc15.docking.org/substances/ZINC000003948085|https://precision.fda.gov/uniisearch/srs/unii/NQU9IPY4K9|https://www.bindingdb.org/bind/chemsearch/marvin/MolStructure.jsp?monomerid=50331096

>  <LinkName>  (312) 
|ChemSpider|ChEMBL|PubChem|DrugBank|Guide to Pharmacology|ZINC|FDA SRS|BindingDB

>  <lig_pdb_ID>  (312) 


>  <pdb_IDs>  (312) 


>  <indicationDB>  (312) 


>  <uniprotId>  (312) 


>  <indicationG2P>  (312) 
None

>  <MW>  (312) 
450.2

>  <HBA>  (312) 
6

>  <HBD>  (312) 
1

>  <NRB>  (312) 
8

>  <TPSA>  (312) 
72.5

>  <LogP>  (312) 
5.2

>  <RoF>  (312) 
1

>  <Melting point>  (312) 
nan

>  <Targets>  (312) 
KDR

>  <Kinase families>  (312) 
Tyr

>  <FDA_approved>  (312) 


$$$$
Ceralasertib
     RDKit          2D

 29 33  0  0  0  0  0  0  0  0999 V2000
    4.3137   -0.8773    0.0000 C   0  0  0  0  0  0  0  0  0  0  0  0
    3.5841   -2.1879    0.0000 C   0  0  0  0  0  0  0  0  0  0  0  0
    4.3543   -3.4751    0.0000 C   0  0  0  0  0  0  0  0  0  0  0  0
    3.6246   -4.7857    0.0000 O   0  0  0  0  0  0  0  0  0  0  0  0
    2.1248   -4.8091    0.0000 C   0  0  0  0  0  0  0  0  0  0  0  0
    1.3546   -3.5219    0.0000 C   0  0  0  0  0  0  0  0  0  0  0  0
    2.0843   -2.2113    0.0000 N   0  0  0  0  0  0  0  0  0  0  0  0
    1.3141   -0.9241    0.0000 C   0  0  0  0  0  0  0  0  0  0  0  0
    2.0438    0.3865    0.0000 C   0  0  0  0  0  0  0  0  0  0  0  0
    1.2736    1.6736    0.0000 C   0  0  0  0  0  0  0  0  0  0  0  0
   -0.2262    1.6503    0.0000 N   0  0  0  0  0  0  0  0  0  0  0  0
   -0.9559    0.3397    0.0000 C   0  0  0  0  0  0  0  0  0  0  0  0
   -0.1857   -0.9475    0.0000 N   0  0  0  0  0  0  0  0  0  0  0  0
   -2.4557    0.3163    0.0000 C   0  0  0  0  0  0  0  0  0  0  0  0
   -3.2259    1.6035    0.0000 C   0  0  0  0  0  0  0  0  0  0  0  0
   -4.7257    1.5801    0.0000 N   0  0  0  0  0  0  0  0  0  0  0  0
   -5.4553    0.2695    0.0000 C   0  0  0  0  0  0  0  0  0  0  0  0
   -4.6852   -1.0177    0.0000 C   0  0  0  0  0  0  0  0  0  0  0  0
   -3.1853   -0.9943    0.0000 C   0  0  0  0  0  0  0  0  0  0  0  0
   -2.6996   -2.4135    0.0000 C   0  0  0  0  0  0  0  0  0  0  0  0
   -3.8993   -3.3140    0.0000 C   0  0  0  0  0  0  0  0  0  0  0  0
   -5.1264   -2.4513    0.0000 N   0  0  0  0  0  0  0  0  0  0  0  0
    2.0032    2.9842    0.0000 C   0  0  0  0  0  0  0  0  0  0  0  0
    3.1371    3.9662    0.0000 C   0  0  0  0  0  0  0  0  0  0  0  0
    3.4206    2.4932    0.0000 C   0  0  0  0  0  0  0  0  0  0  0  0
    0.8393    3.9304    0.0000 S   0  0  0  0  0  0  0  0  0  0  0  0
   -0.1069    2.7664    0.0000 N   0  0  0  0  0  0  0  0  0  0  0  0
    1.7854    5.0943    0.0000 O   0  0  0  0  0  0  0  0  0  0  0  0
   -0.3247    4.8765    0.0000 C   0  0  0  0  0  0  0  0  0  0  0  0
  1  2  1  0
  2  3  1  0
  3  4  1  0
  4  5  1  0
  5  6  1  0
  6  7  1  0
  7  8  1  0
  8  9  2  0
  9 10  1  0
 10 11  2  0
 11 12  1  0
 12 13  2  0
 12 14  1  0
 14 15  2  0
 15 16  1  0
 16 17  2  0
 17 18  1  0
 18 19  2  0
 19 20  1  0
 20 21  2  0
 21 22  1  0
 10 23  1  0
 23 24  1  0
 24 25  1  0
 23 26  1  0
 26 27  2  0
 26 28  2  0
 26 29  1  0
  7  2  1  0
 13  8  1  0
 19 14  1  0
 22 18  1  0
 25 23  1  0
M  END
>  <BrandName>  (313) 


>  <Applicants>  (313) 
Astrazeneca

>  <CHEMBL_ID>  (313) 
CHEMBL4285417

>  <Canonical_Smiles>  (313) 
CC1COCCN1c2cc(nc(n2)c3cncc4c3cc[nH]4)C5(CC5)S(=N)(=O)C

>  <Chirality>  (313) 
Single Stereoisomer

>  <First_Approval>  (313) 
nan

>  <Phase>  (313) 
3.0

>  <SC_Patent>  (313) 
nan

>  <Synonyms>  (313) 
AZD6738|AZD-6738

>  <Withdrawn>  (313) 
{''}

>  <Indications>  (313) 
Ceralasertib, also known as AZD6738, is an orally available morpholino-pyrimidine-based inhibitor of ataxia telangiectasia and rad3 related (ATR) kinase, with potential antineoplastic activity. Upon oral administration, ATR kinase inhibitor Ceralasertib selectively inhibits ATR activity by blocking the downstream phosphorylation of the serine/threonine protein kinase CHK1. This prevents ATR-mediated signaling, and results in the inhibition of DNA damage checkpoint activation, disruption of DNA damage repair, and the induction of tumor cell apoptosis.

>  <Type>  (313) 
nan

>  <targets_id>  (313) 
nan

>  <Inchi>  (313) 
InChI=1S/C20H24N6O2S/c1-13-12-28-10-9-26(13)17-11-16(20(5-6-20)29(2,21)27)24-19(25-17)15-4-8-23-18-14(15)3-7-22-18/h3-4,7-8,11,13,21H,5-6,9-10,12H2,1-2H3,(H,22,23)/t13-,29-/m1/s1

>  <stdInchikey>  (313) 
DTTJKLNXNZAVSM-UHFFFAOYSA-N

>  <csid>  (313) 
64879993

>  <Links>  (313) 
|http://www.chemspider.com/Chemical-Structure.64879993.html|https://pubchem.ncbi.nlm.nih.gov/compound/76189946

>  <LinkName>  (313) 
|ChemSpider|PubChem

>  <lig_pdb_ID>  (313) 


>  <pdb_IDs>  (313) 


>  <indicationDB>  (313) 


>  <uniprotId>  (313) 


>  <indicationG2P>  (313) 


>  <MW>  (313) 
412.2

>  <HBA>  (313) 
7

>  <HBD>  (313) 
2

>  <NRB>  (313) 
4

>  <TPSA>  (313) 
107.8

>  <LogP>  (313) 
2.9

>  <RoF>  (313) 
0

>  <Melting point>  (313) 
nan

>  <Targets>  (313) 
nan

>  <Kinase families>  (313) 


>  <FDA_approved>  (313) 


$$$$
Entospletinib
     RDKit          2D

 31 36  0  0  0  0  0  0  0  0999 V2000
    0.9908   -1.0030    0.0000 C   0  0  0  0  0  0  0  0  0  0  0  0
    2.3314   -0.3300    0.0000 C   0  0  0  0  0  0  0  0  0  0  0  0
    3.5845   -1.1545    0.0000 C   0  0  0  0  0  0  0  0  0  0  0  0
    3.4970   -2.6519    0.0000 C   0  0  0  0  0  0  0  0  0  0  0  0
    2.1565   -3.3249    0.0000 C   0  0  0  0  0  0  0  0  0  0  0  0
    0.9034   -2.5005    0.0000 C   0  0  0  0  0  0  0  0  0  0  0  0
   -0.4372   -3.1735    0.0000 N   0  0  0  0  0  0  0  0  0  0  0  0
   -1.6903   -2.3490    0.0000 C   0  0  0  0  0  0  0  0  0  0  0  0
   -3.0308   -3.0220    0.0000 C   0  0  0  0  0  0  0  0  0  0  0  0
   -3.4277   -4.4686    0.0000 N   0  0  0  0  0  0  0  0  0  0  0  0
   -4.9261   -4.5381    0.0000 C   0  0  0  0  0  0  0  0  0  0  0  0
   -5.4553   -3.1346    0.0000 C   0  0  0  0  0  0  0  0  0  0  0  0
   -4.2839   -2.1976    0.0000 N   0  0  0  0  0  0  0  0  0  0  0  0
   -4.1965   -0.7001    0.0000 C   0  0  0  0  0  0  0  0  0  0  0  0
   -2.8559   -0.0271    0.0000 C   0  0  0  0  0  0  0  0  0  0  0  0
   -1.6028   -0.8516    0.0000 N   0  0  0  0  0  0  0  0  0  0  0  0
   -2.7685    1.4703    0.0000 C   0  0  0  0  0  0  0  0  0  0  0  0
   -4.0216    2.2948    0.0000 C   0  0  0  0  0  0  0  0  0  0  0  0
   -3.9342    3.7922    0.0000 C   0  0  0  0  0  0  0  0  0  0  0  0
   -2.5936    4.4652    0.0000 C   0  0  0  0  0  0  0  0  0  0  0  0
   -2.1967    5.9118    0.0000 C   0  0  0  0  0  0  0  0  0  0  0  0
   -0.6984    5.9813    0.0000 N   0  0  0  0  0  0  0  0  0  0  0  0
   -0.1692    4.5778    0.0000 N   0  0  0  0  0  0  0  0  0  0  0  0
   -1.3405    3.6408    0.0000 C   0  0  0  0  0  0  0  0  0  0  0  0
   -1.4279    2.1433    0.0000 C   0  0  0  0  0  0  0  0  0  0  0  0
    4.9250   -0.4815    0.0000 N   0  0  0  0  0  0  0  0  0  0  0  0
    6.1781   -1.3059    0.0000 C   0  0  0  0  0  0  0  0  0  0  0  0
    7.5187   -0.6329    0.0000 C   0  0  0  0  0  0  0  0  0  0  0  0
    7.6061    0.8645    0.0000 O   0  0  0  0  0  0  0  0  0  0  0  0
    6.3530    1.6890    0.0000 C   0  0  0  0  0  0  0  0  0  0  0  0
    5.0125    1.0160    0.0000 C   0  0  0  0  0  0  0  0  0  0  0  0
  1  2  2  0
  2  3  1  0
  3  4  2  0
  4  5  1  0
  5  6  2  0
  6  7  1  0
  7  8  1  0
  8  9  1  0
  9 10  2  0
 10 11  1  0
 11 12  2  0
 12 13  1  0
 13 14  1  0
 14 15  2  0
 15 16  1  0
 15 17  1  0
 17 18  2  0
 18 19  1  0
 19 20  2  0
 20 21  1  0
 21 22  2  0
 22 23  1  0
 23 24  1  0
 24 25  2  0
  3 26  1  0
 26 27  1  0
 27 28  1  0
 28 29  1  0
 29 30  1  0
 30 31  1  0
  6  1  1  0
 16  8  2  0
 13  9  1  0
 25 17  1  0
 24 20  1  0
 31 26  1  0
M  END
>  <BrandName>  (314) 


>  <Applicants>  (314) 
Gilead Sciences

>  <CHEMBL_ID>  (314) 
CHEMBL3265032

>  <Canonical_Smiles>  (314) 
c1cc(ccc1Nc2c3nccn3cc(n2)c4ccc5cn[nH]c5c4)N6CCOCC6

>  <Chirality>  (314) 
Achiral Molecule

>  <First_Approval>  (314) 
nan

>  <Phase>  (314) 
3.0

>  <SC_Patent>  (314) 
nan

>  <Synonyms>  (314) 
ENTOSPLETINIB | GS-9973 | SYK INHIBITOR GS-9973

>  <Withdrawn>  (314) 
{''}

>  <Indications>  (314) 
nan

>  <Type>  (314) 
1

>  <targets_id>  (314) 
P43405

>  <Inchi>  (314) 
InChI=1S/C23H21N7O/c1-2-17-14-25-28-20(17)13-16(1)21-15-30-8-7-24-23(30)22(27-21)26-18-3-5-19(6-4-18)29-9-11-31-12-10-29/h1-8,13-15H,9-12H2,(H,25,28)(H,26,27)

>  <stdInchikey>  (314) 
XSMSNFMDVXXHGJ-UHFFFAOYSA-N

>  <csid>  (314) 
31042596

>  <Links>  (314) 
|http://www.chemspider.com/Chemical-Structure.31042596.html|https://www.ebi.ac.uk/chembldb/compound/inspect/CHEMBL3265032|https://pubchem.ncbi.nlm.nih.gov/compound/59473233|https://go.drugbank.com/drugs/DB12121|https://www.rcsb.org/ligand/CG9|https://www.ebi.ac.uk/pdbe-srv/pdbechem/chemicalCompound/show/CG9|https://www.guidetopharmacology.org/GRAC/LigandDisplayForward?7889|https://zinc15.docking.org/substances/ZINC000098208742|https://precision.fda.gov/uniisearch/srs/unii/6I3O3W6O3B|https://www.bindingdb.org/bind/chemsearch/marvin/MolStructure.jsp?monomerid=50015448

>  <LinkName>  (314) 
|ChemSpider|ChEMBL|PubChem|DrugBank|RCSB|PDBe|Guide to Pharmacology|ZINC|FDA SRS|BindingDB

>  <lig_pdb_ID>  (314) 
CG9

>  <pdb_IDs>  (314) 
4puz

>  <indicationDB>  (314) 


>  <uniprotId>  (314) 


>  <indicationG2P>  (314) 
None

>  <MW>  (314) 
411.2

>  <HBA>  (314) 
7

>  <HBD>  (314) 
2

>  <NRB>  (314) 
4

>  <TPSA>  (314) 
83.4

>  <LogP>  (314) 
3.9

>  <RoF>  (314) 
0

>  <Melting point>  (314) 
nan

>  <Targets>  (314) 
SYK

>  <Kinase families>  (314) 
Tyr

>  <FDA_approved>  (314) 


$$$$
Brepocitinib
     RDKit          2D

 28 32  0  0  0  0  0  0  0  0999 V2000
    5.9758   -2.3830    0.0000 C   0  0  0  0  0  0  0  0  0  0  0  0
    4.7643   -1.4986    0.0000 N   0  0  0  0  0  0  0  0  0  0  0  0
    4.7677    0.0014    0.0000 C   0  0  0  0  0  0  0  0  0  0  0  0
    3.3422    0.4683    0.0000 C   0  0  0  0  0  0  0  0  0  0  0  0
    2.4578   -0.7432    0.0000 C   0  0  0  0  0  0  0  0  0  0  0  0
    3.3366   -1.9588    0.0000 N   0  0  0  0  0  0  0  0  0  0  0  0
    2.8820    1.8959    0.0000 N   0  0  0  0  0  0  0  0  0  0  0  0
    1.4155    2.2112    0.0000 C   0  0  0  0  0  0  0  0  0  0  0  0
    0.9553    3.6388    0.0000 N   0  0  0  0  0  0  0  0  0  0  0  0
   -0.5112    3.9541    0.0000 C   0  0  0  0  0  0  0  0  0  0  0  0
   -1.5175    2.8417    0.0000 C   0  0  0  0  0  0  0  0  0  0  0  0
   -1.0573    1.4140    0.0000 C   0  0  0  0  0  0  0  0  0  0  0  0
    0.4092    1.0988    0.0000 N   0  0  0  0  0  0  0  0  0  0  0  0
   -2.0635    0.3016    0.0000 N   0  0  0  0  0  0  0  0  0  0  0  0
   -1.6033   -1.1260    0.0000 C   0  0  0  0  0  0  0  0  0  0  0  0
   -2.6096   -2.2384    0.0000 C   0  0  0  0  0  0  0  0  0  0  0  0
   -3.9103   -2.9854    0.0000 C   0  0  0  0  0  0  0  0  0  0  0  0
   -5.0227   -1.9792    0.0000 C   0  0  0  0  0  0  0  0  0  0  0  0
   -4.4095   -0.6102    0.0000 C   0  0  0  0  0  0  0  0  0  0  0  0
   -3.5300    0.6169    0.0000 C   0  0  0  0  0  0  0  0  0  0  0  0
   -2.9180   -0.7705    0.0000 N   0  0  0  0  0  0  0  0  0  0  0  0
   -1.9118    0.3419    0.0000 C   0  0  0  0  0  0  0  0  0  0  0  0
   -2.3720    1.7696    0.0000 O   0  0  0  0  0  0  0  0  0  0  0  0
   -0.4453    0.0267    0.0000 C   0  0  0  0  0  0  0  0  0  0  0  0
    0.9824    0.4869    0.0000 C   0  0  0  0  0  0  0  0  0  0  0  0
    0.6671   -0.9796    0.0000 C   0  0  0  0  0  0  0  0  0  0  0  0
    2.0566   -1.5447    0.0000 F   0  0  0  0  0  0  0  0  0  0  0  0
   -0.1307   -2.2498    0.0000 F   0  0  0  0  0  0  0  0  0  0  0  0
  1  2  1  0
  2  3  1  0
  3  4  2  0
  4  5  1  0
  5  6  2  0
  4  7  1  0
  7  8  1  0
  8  9  2  0
  9 10  1  0
 10 11  2  0
 11 12  1  0
 12 13  2  0
 12 14  1  0
 14 15  1  0
 16 15  1  1
 16 17  1  0
 17 18  1  0
 19 18  1  1
 19 20  1  0
 19 21  1  0
 21 22  1  0
 22 23  2  0
 24 22  1  6
 24 25  1  0
 25 26  1  0
 26 27  1  0
 26 28  1  0
  6  2  1  0
 13  8  1  0
 20 14  1  0
 21 16  1  0
 26 24  1  0
M  END
>  <BrandName>  (315) 


>  <Applicants>  (315) 
Pfizer

>  <CHEMBL_ID>  (315) 
CHEMBL4297477

>  <Canonical_Smiles>  (315) 
Cn1cc(cn1)Nc2nccc(n2)N3C[C@H]4CC[C@@H](C3)N4C(=O)[C@@H]5CC5(F)F

>  <Chirality>  (315) 
Single Stereoisomer

>  <First_Approval>  (315) 
nan

>  <Phase>  (315) 
3.0

>  <SC_Patent>  (315) 
nan

>  <Synonyms>  (315) 
BREPOCITINIB | PF-06700841

>  <Withdrawn>  (315) 
{''}

>  <Indications>  (315) 
nan

>  <Type>  (315) 
nan

>  <targets_id>  (315) 
nan

>  <Inchi>  (315) 
InChI=1S/C18H21F2N7O/c1-25-8-11(7-22-25)23-17-21-5-4-15(24-17)26-9-12-2-3-13(10-26)27(12)16(28)14-6-18(14,19)20/h4-5,7-8,12-14H,2-3,6,9-10H2,1H3,(H,21,23,24)/t12-,13+,14-/m0/s1

>  <stdInchikey>  (315) 
BUWBRTXGQRBBHG-MJBXVCDLSA-N

>  <csid>  (315) 
71107316

>  <Links>  (315) 
|http://www.chemspider.com/Chemical-Structure.71107316.html|https://www.ebi.ac.uk/chembldb/compound/inspect/CHEMBL4297477|https://pubchem.ncbi.nlm.nih.gov/compound/118878093|https://go.drugbank.com/drugs/DB15003|https://www.rcsb.org/ligand/G4J|https://www.ebi.ac.uk/pdbe-srv/pdbechem/chemicalCompound/show/G4J|https://www.guidetopharmacology.org/GRAC/LigandDisplayForward?10459|https://zinc15.docking.org/substances/ZINC000526061580|https://precision.fda.gov/uniisearch/srs/unii/3X8387Q25N|https://www.bindingdb.org/bind/chemsearch/marvin/MolStructure.jsp?monomerid=329924

>  <LinkName>  (315) 
|ChemSpider|ChEMBL|PubChem|DrugBank|RCSB|PDBe|Guide to Pharmacology|ZINC|FDA SRS|BindingDB

>  <lig_pdb_ID>  (315) 
G4J

>  <pdb_IDs>  (315) 
6dbm 6dbn

>  <indicationDB>  (315) 


>  <uniprotId>  (315) 


>  <indicationG2P>  (315) 
None

>  <MW>  (315) 
389.2

>  <HBA>  (315) 
7

>  <HBD>  (315) 
1

>  <NRB>  (315) 
4

>  <TPSA>  (315) 
79.2

>  <LogP>  (315) 
1.8

>  <RoF>  (315) 
0

>  <Melting point>  (315) 
nan

>  <Targets>  (315) 
nan

>  <Kinase families>  (315) 


>  <FDA_approved>  (315) 


$$$$
Brivanib
     RDKit          2D

 27 30  0  0  0  0  0  0  0  0999 V2000
   -8.2591   -1.0548    0.0000 C   0  0  0  0  0  0  0  0  0  0  0  0
   -6.9184   -0.3821    0.0000 C   0  0  0  0  0  0  0  0  0  0  0  0
   -5.5862   -1.0713    0.0000 C   0  0  0  0  0  0  0  0  0  0  0  0
   -4.5190   -0.0172    0.0000 C   0  0  0  0  0  0  0  0  0  0  0  0
   -5.1917    1.3235    0.0000 C   0  0  0  0  0  0  0  0  0  0  0  0
   -6.6747    1.0980    0.0000 N   0  0  0  0  0  0  0  0  0  0  0  0
   -4.3670    2.5764    0.0000 C   0  0  0  0  0  0  0  0  0  0  0  0
   -2.8696    2.4887    0.0000 C   0  0  0  0  0  0  0  0  0  0  0  0
   -2.1968    1.1480    0.0000 C   0  0  0  0  0  0  0  0  0  0  0  0
   -3.0215   -0.1049    0.0000 C   0  0  0  0  0  0  0  0  0  0  0  0
   -2.3488   -1.4456    0.0000 F   0  0  0  0  0  0  0  0  0  0  0  0
   -0.6994    1.0603    0.0000 O   0  0  0  0  0  0  0  0  0  0  0  0
   -0.0267   -0.2804    0.0000 C   0  0  0  0  0  0  0  0  0  0  0  0
    1.4708   -0.3681    0.0000 C   0  0  0  0  0  0  0  0  0  0  0  0
    2.5379    0.6860    0.0000 C   0  0  0  0  0  0  0  0  0  0  0  0
    3.8702   -0.0033    0.0000 C   0  0  0  0  0  0  0  0  0  0  0  0
    3.6264   -1.4833    0.0000 C   0  0  0  0  0  0  0  0  0  0  0  0
    2.1435   -1.7088    0.0000 N   0  0  0  0  0  0  0  0  0  0  0  0
    1.3188   -2.9618    0.0000 N   0  0  0  0  0  0  0  0  0  0  0  0
   -0.1786   -2.8740    0.0000 C   0  0  0  0  0  0  0  0  0  0  0  0
   -0.8514   -1.5334    0.0000 N   0  0  0  0  0  0  0  0  0  0  0  0
    5.2109    0.6695    0.0000 O   0  0  0  0  0  0  0  0  0  0  0  0
    6.4638   -0.1552    0.0000 C   0  0  0  0  0  0  0  0  0  0  0  0
    7.8045    0.5175    0.0000 C   0  0  0  0  0  0  0  0  0  0  0  0
    9.0575   -0.3072    0.0000 C   0  0  0  0  0  0  0  0  0  0  0  0
    7.8923    2.0150    0.0000 O   0  0  0  0  0  0  0  0  0  0  0  0
    2.3124    2.1689    0.0000 C   0  0  0  0  0  0  0  0  0  0  0  0
  1  2  1  0
  2  3  2  0
  3  4  1  0
  4  5  2  0
  5  6  1  0
  5  7  1  0
  7  8  2  0
  8  9  1  0
  9 10  2  0
 10 11  1  0
  9 12  1  0
 12 13  1  0
 13 14  1  0
 14 15  2  0
 15 16  1  0
 16 17  2  0
 17 18  1  0
 18 19  1  0
 19 20  2  0
 20 21  1  0
 16 22  1  0
 22 23  1  0
 23 24  1  0
 24 25  1  6
 24 26  1  0
 15 27  1  0
  6  2  1  0
 10  4  1  0
 21 13  2  0
 18 14  1  0
M  END
>  <BrandName>  (316) 


>  <Applicants>  (316) 
Bristol Myers Squibb

>  <CHEMBL_ID>  (316) 
CHEMBL270995

>  <Canonical_Smiles>  (316) 
Cc1cc2c([nH]1)ccc(c2F)Oc3c4c(c(cn4ncn3)OC[C@@H](C)O)C

>  <Chirality>  (316) 
Single Stereoisomer

>  <First_Approval>  (316) 
nan

>  <Phase>  (316) 
3.0

>  <SC_Patent>  (316) 
nan

>  <Synonyms>  (316) 
BMS-540215 | BRIVANIB

>  <Withdrawn>  (316) 
{''}

>  <Indications>  (316) 
nan

>  <Type>  (316) 
nan

>  <targets_id>  (316) 
P35968

>  <Inchi>  (316) 
InChI=1S/C19H19FN4O3/c1-10-6-13-14(23-10)4-5-15(17(13)20)27-19-18-12(3)16(26-8-11(2)25)7-24(18)22-9-21-19/h4-7,9,11,23,25H,8H2,1-3H3/t11-/m1/s1

>  <stdInchikey>  (316) 
WCWUXEGQKLTGDX-LLVKDONJSA-N

>  <csid>  (316) 
9409099

>  <Links>  (316) 
|http://www.chemspider.com/Chemical-Structure.9409099.html|https://www.ebi.ac.uk/chembldb/compound/inspect/CHEMBL377300|https://pubchem.ncbi.nlm.nih.gov/compound/11234052|https://go.drugbank.com/drugs/DB11958|https://www.guidetopharmacology.org/GRAC/LigandDisplayForward?5671|https://zinc15.docking.org/substances/ZINC000013684256|https://precision.fda.gov/uniisearch/srs/unii/DDU33B674I|https://www.bindingdb.org/bind/chemsearch/marvin/MolStructure.jsp?monomerid=50184807

>  <LinkName>  (316) 
|ChemSpider|ChEMBL|PubChem|DrugBank|Guide to Pharmacology|ZINC|FDA SRS|BindingDB

>  <lig_pdb_ID>  (316) 


>  <pdb_IDs>  (316) 


>  <indicationDB>  (316) 


>  <uniprotId>  (316) 


>  <indicationG2P>  (316) 
None

>  <MW>  (316) 
370.1

>  <HBA>  (316) 
6

>  <HBD>  (316) 
2

>  <NRB>  (316) 
5

>  <TPSA>  (316) 
84.7

>  <LogP>  (316) 
3.5

>  <RoF>  (316) 
0

>  <Melting point>  (316) 
nan

>  <Targets>  (316) 
KDR

>  <Kinase families>  (316) 
Tyr

>  <FDA_approved>  (316) 


$$$$
Buparlisib
     RDKit          2D

 29 32  0  0  0  0  0  0  0  0999 V2000
    4.5694    1.0558    0.0000 C   0  0  0  0  0  0  0  0  0  0  0  0
    3.1993    0.4452    0.0000 C   0  0  0  0  0  0  0  0  0  0  0  0
    1.9855    1.3263    0.0000 C   0  0  0  0  0  0  0  0  0  0  0  0
    2.1416    2.8182    0.0000 C   0  0  0  0  0  0  0  0  0  0  0  0
    3.5117    3.4289    0.0000 N   0  0  0  0  0  0  0  0  0  0  0  0
    4.7256    2.5477    0.0000 C   0  0  0  0  0  0  0  0  0  0  0  0
    6.0957    3.1584    0.0000 N   0  0  0  0  0  0  0  0  0  0  0  0
    0.6154    0.7157    0.0000 C   0  0  0  0  0  0  0  0  0  0  0  0
   -0.5985    1.5969    0.0000 C   0  0  0  0  0  0  0  0  0  0  0  0
   -1.9686    0.9862    0.0000 C   0  0  0  0  0  0  0  0  0  0  0  0
   -2.1247   -0.5057    0.0000 N   0  0  0  0  0  0  0  0  0  0  0  0
   -0.9109   -1.3868    0.0000 C   0  0  0  0  0  0  0  0  0  0  0  0
    0.4592   -0.7762    0.0000 N   0  0  0  0  0  0  0  0  0  0  0  0
   -1.0670   -2.8787    0.0000 N   0  0  0  0  0  0  0  0  0  0  0  0
   -2.4371   -3.4894    0.0000 C   0  0  0  0  0  0  0  0  0  0  0  0
   -2.5933   -4.9812    0.0000 C   0  0  0  0  0  0  0  0  0  0  0  0
   -1.3794   -5.8624    0.0000 O   0  0  0  0  0  0  0  0  0  0  0  0
   -0.0093   -5.2517    0.0000 C   0  0  0  0  0  0  0  0  0  0  0  0
    0.1469   -3.7599    0.0000 C   0  0  0  0  0  0  0  0  0  0  0  0
   -3.1825    1.8674    0.0000 N   0  0  0  0  0  0  0  0  0  0  0  0
   -3.0263    3.3592    0.0000 C   0  0  0  0  0  0  0  0  0  0  0  0
   -4.2402    4.2404    0.0000 C   0  0  0  0  0  0  0  0  0  0  0  0
   -5.6102    3.6297    0.0000 O   0  0  0  0  0  0  0  0  0  0  0  0
   -5.7664    2.1379    0.0000 C   0  0  0  0  0  0  0  0  0  0  0  0
   -4.5525    1.2567    0.0000 C   0  0  0  0  0  0  0  0  0  0  0  0
    3.0432   -1.0467    0.0000 C   0  0  0  0  0  0  0  0  0  0  0  0
    2.8870   -2.5385    0.0000 F   0  0  0  0  0  0  0  0  0  0  0  0
    4.5350   -1.2029    0.0000 F   0  0  0  0  0  0  0  0  0  0  0  0
    1.5513   -0.8905    0.0000 F   0  0  0  0  0  0  0  0  0  0  0  0
  1  2  2  0
  2  3  1  0
  3  4  2  0
  4  5  1  0
  5  6  2  0
  6  7  1  0
  3  8  1  0
  8  9  2  0
  9 10  1  0
 10 11  2  0
 11 12  1  0
 12 13  2  0
 12 14  1  0
 14 15  1  0
 15 16  1  0
 16 17  1  0
 17 18  1  0
 18 19  1  0
 10 20  1  0
 20 21  1  0
 21 22  1  0
 22 23  1  0
 23 24  1  0
 24 25  1  0
  2 26  1  0
 26 27  1  0
 26 28  1  0
 26 29  1  0
  6  1  1  0
 13  8  1  0
 19 14  1  0
 25 20  1  0
M  END
>  <BrandName>  (317) 


>  <Applicants>  (317) 
Novartis

>  <CHEMBL_ID>  (317) 
CHEMBL2017974

>  <Canonical_Smiles>  (317) 
c1c(c(cnc1N)c2cc(nc(n2)N3CCOCC3)N4CCOCC4)C(F)(F)F

>  <Chirality>  (317) 
Achiral Molecule

>  <First_Approval>  (317) 
nan

>  <Phase>  (317) 
3.0

>  <SC_Patent>  (317) 
nan

>  <Synonyms>  (317) 
BKM-120 | BKM-120NX | BKM120-NX | BUPARLISIB | NVP-BKM-120 | NVP-BKM120

>  <Withdrawn>  (317) 
{''}

>  <Indications>  (317) 
nan

>  <Type>  (317) 
1

>  <targets_id>  (317) 
P42336

>  <Inchi>  (317) 
InChI=1S/C18H21F3N6O2/c19-18(20,21)13-9-15(22)23-11-12(13)14-10-16(26-1-5-28-6-2-26)25-17(24-14)27-3-7-29-8-4-27/h9-11H,1-8H2,(H2,22,23)

>  <stdInchikey>  (317) 
CWHUFRVAEUJCEF-UHFFFAOYSA-N

>  <csid>  (317) 
17588300

>  <Links>  (317) 
|http://www.chemspider.com/Chemical-Structure.17588300.html|https://www.ebi.ac.uk/chembldb/compound/inspect/CHEMBL2017974|https://pubchem.ncbi.nlm.nih.gov/compound/16654980|https://go.drugbank.com/drugs/DB11666|https://www.rcsb.org/ligand/SD5|https://www.ebi.ac.uk/pdbe-srv/pdbechem/chemicalCompound/show/SD5|https://www.guidetopharmacology.org/GRAC/LigandDisplayForward?7878|https://zinc15.docking.org/substances/ZINC000043154039|https://precision.fda.gov/uniisearch/srs/unii/0ZM2Z182GD|https://www.bindingdb.org/bind/chemsearch/marvin/MolStructure.jsp?monomerid=50380363

>  <LinkName>  (317) 
|ChemSpider|ChEMBL|PubChem|DrugBank|RCSB|PDBe|Guide to Pharmacology|ZINC|FDA SRS|BindingDB

>  <lig_pdb_ID>  (317) 
SD5

>  <pdb_IDs>  (317) 
3sd5 5m7e 7r26

>  <indicationDB>  (317) 


>  <uniprotId>  (317) 


>  <indicationG2P>  (317) 
None

>  <MW>  (317) 
410.2

>  <HBA>  (317) 
8

>  <HBD>  (317) 
1

>  <NRB>  (317) 
3

>  <TPSA>  (317) 
89.6

>  <LogP>  (317) 
1.8

>  <RoF>  (317) 
0

>  <Melting point>  (317) 
nan

>  <Targets>  (317) 
PIK3CA

>  <Kinase families>  (317) 
Atypical

>  <FDA_approved>  (317) 


$$$$
Povorcitinib
     RDKit          2D

 36 39  0  0  0  0  0  0  0  0999 V2000
   -7.5726    3.2253    0.0000 C   0  0  0  0  0  0  0  0  0  0  0  0
   -8.0242    1.7949    0.0000 C   0  0  0  0  0  0  0  0  0  0  0  0
   -9.4469    1.3195    0.0000 N   0  0  0  0  0  0  0  0  0  0  0  0
   -9.4343   -0.1805    0.0000 N   0  0  0  0  0  0  0  0  0  0  0  0
   -8.0039   -0.6321    0.0000 C   0  0  0  0  0  0  0  0  0  0  0  0
   -7.5285   -2.0547    0.0000 C   0  0  0  0  0  0  0  0  0  0  0  0
   -7.1324    0.5888    0.0000 C   0  0  0  0  0  0  0  0  0  0  0  0
   -5.6325    0.6013    0.0000 C   0  0  0  0  0  0  0  0  0  0  0  0
   -4.7610    1.8221    0.0000 C   0  0  0  0  0  0  0  0  0  0  0  0
   -3.3306    1.3705    0.0000 N   0  0  0  0  0  0  0  0  0  0  0  0
   -3.3180   -0.1294    0.0000 N   0  0  0  0  0  0  0  0  0  0  0  0
   -4.7407   -0.6048    0.0000 C   0  0  0  0  0  0  0  0  0  0  0  0
   -2.0972   -1.0009    0.0000 C   0  0  0  0  0  0  0  0  0  0  0  0
   -0.8763   -1.8724    0.0000 C   0  0  0  0  0  0  0  0  0  0  0  0
   -0.0048   -0.6516    0.0000 N   0  0  0  0  0  0  0  0  0  0  0  0
   -1.2257    0.2199    0.0000 C   0  0  0  0  0  0  0  0  0  0  0  0
    1.4747   -0.4046    0.0000 C   0  0  0  0  0  0  0  0  0  0  0  0
    2.4284   -1.5624    0.0000 C   0  0  0  0  0  0  0  0  0  0  0  0
    3.9079   -1.3153    0.0000 C   0  0  0  0  0  0  0  0  0  0  0  0
    4.8616   -2.4731    0.0000 F   0  0  0  0  0  0  0  0  0  0  0  0
    4.4337    0.0895    0.0000 C   0  0  0  0  0  0  0  0  0  0  0  0
    3.4801    1.2473    0.0000 C   0  0  0  0  0  0  0  0  0  0  0  0
    2.0005    1.0002    0.0000 C   0  0  0  0  0  0  0  0  0  0  0  0
    1.0469    2.1580    0.0000 F   0  0  0  0  0  0  0  0  0  0  0  0
    5.9133    0.3365    0.0000 C   0  0  0  0  0  0  0  0  0  0  0  0
    6.4391    1.7413    0.0000 O   0  0  0  0  0  0  0  0  0  0  0  0
    6.8669   -0.8213    0.0000 N   0  0  0  0  0  0  0  0  0  0  0  0
    8.3465   -0.5743    0.0000 C   0  0  0  0  0  0  0  0  0  0  0  0
    9.3002   -1.7321    0.0000 C   0  0  0  0  0  0  0  0  0  0  0  0
    8.8723    0.8305    0.0000 C   0  0  0  0  0  0  0  0  0  0  0  0
    9.3981    2.2353    0.0000 F   0  0  0  0  0  0  0  0  0  0  0  0
   10.2771    0.3047    0.0000 F   0  0  0  0  0  0  0  0  0  0  0  0
    7.4675    1.3564    0.0000 F   0  0  0  0  0  0  0  0  0  0  0  0
   -2.9687   -2.2218    0.0000 C   0  0  0  0  0  0  0  0  0  0  0  0
   -4.4617   -2.0774    0.0000 C   0  0  0  0  0  0  0  0  0  0  0  0
   -5.9548   -1.9331    0.0000 N   0  0  0  0  0  0  0  0  0  0  0  0
  1  2  1  0
  2  3  1  0
  3  4  1  0
  4  5  2  0
  5  6  1  0
  5  7  1  0
  7  8  1  0
  8  9  1  0
  9 10  2  0
 10 11  1  0
 11 12  1  0
 11 13  1  0
 13 14  1  0
 14 15  1  0
 15 16  1  0
 15 17  1  0
 17 18  2  0
 18 19  1  0
 19 20  1  0
 19 21  2  0
 21 22  1  0
 22 23  2  0
 23 24  1  0
 21 25  1  0
 25 26  2  0
 25 27  1  0
 27 28  1  0
 28 29  1  6
 28 30  1  0
 30 31  1  0
 30 32  1  0
 30 33  1  0
 13 34  1  0
 34 35  1  0
 35 36  3  0
  7  2  2  0
 12  8  2  0
 16 13  1  0
 23 17  1  0
M  END
>  <BrandName>  (318) 


>  <Applicants>  (318) 
Incyte Corporation

>  <CHEMBL_ID>  (318) 
CHEMBL5095079

>  <Canonical_Smiles>  (318) 
CC1NN=C(C)C=1C1C=NN(C=1)C1(CN(C1)C1C=C(F)C(=CC=1F)C(=O)N[C@@H](C)C(F)(F)F)CC#N

>  <Chirality>  (318) 
Single Stereoisomer

>  <First_Approval>  (318) 
nan

>  <Phase>  (318) 
3.0

>  <SC_Patent>  (318) 
nan

>  <Synonyms>  (318) 
INCB-054707 | INCB054707 | POVORCITINIB

>  <Withdrawn>  (318) 
nan

>  <Indications>  (318) 
nan

>  <Type>  (318) 
nan

>  <targets_id>  (318) 
nan

>  <Inchi>  (318) 
InChI=1S/C23H22F5N7O/c1-12-20(13(2)33-32-12)15-8-30-35(9-15)22(4-5-29)10-34(11-22)19-7-17(24)16(6-18(19)25)21(36)31-14(3)23(26,27)28/h6-9,14H,4,10-11H2,1-3H3,(H,31,36)(H,32,33)/t14-/m0/s1

>  <stdInchikey>  (318) 
MSGYSFWCPOBHEV-AWEZNQCLSA-N

>  <csid>  (318) 
115010428

>  <Links>  (318) 
|http://www.chemspider.com/Chemical-Structure.115010428.html|https://www.ebi.ac.uk/chembldb/compound/inspect/CHEMBL5095079|https://pubchem.ncbi.nlm.nih.gov/compound/86280672

>  <LinkName>  (318) 
|ChemSpider|ChEMBL|PubChem

>  <lig_pdb_ID>  (318) 


>  <pdb_IDs>  (318) 


>  <indicationDB>  (318) 


>  <uniprotId>  (318) 


>  <indicationG2P>  (318) 


>  <MW>  (318) 
507.2

>  <HBA>  (318) 
6

>  <HBD>  (318) 
2

>  <NRB>  (318) 
6

>  <TPSA>  (318) 
102.6

>  <LogP>  (318) 
4.0

>  <RoF>  (318) 
1

>  <Melting point>  (318) 
nan

>  <Targets>  (318) 
nan

>  <Kinase families>  (318) 


>  <FDA_approved>  (318) 


$$$$
Rilzabrutinib
     RDKit          2D

 49 55  0  0  0  0  0  0  0  0999 V2000
    4.8160    0.5051    0.0000 C   0  0  0  0  0  0  0  0  0  0  0  0
    6.2289    1.0089    0.0000 C   0  0  0  0  0  0  0  0  0  0  0  0
    7.6418    1.5127    0.0000 C   0  0  0  0  0  0  0  0  0  0  0  0
    5.7251    2.4217    0.0000 C   0  0  0  0  0  0  0  0  0  0  0  0
    4.2496    2.6919    0.0000 C   0  0  0  0  0  0  0  0  0  0  0  0
    3.2779    1.5492    0.0000 C   0  0  0  0  0  0  0  0  0  0  0  0
    2.3063    0.4064    0.0000 N   0  0  0  0  0  0  0  0  0  0  0  0
    3.7458    4.1048    0.0000 C   0  0  0  0  0  0  0  0  0  0  0  0
    4.7175    5.2475    0.0000 O   0  0  0  0  0  0  0  0  0  0  0  0
    2.2704    4.3749    0.0000 N   0  0  0  0  0  0  0  0  0  0  0  0
    1.7666    5.7878    0.0000 C   0  0  0  0  0  0  0  0  0  0  0  0
    0.2911    6.0579    0.0000 C   0  0  0  0  0  0  0  0  0  0  0  0
   -0.6806    4.9152    0.0000 C   0  0  0  0  0  0  0  0  0  0  0  0
   -0.1768    3.5023    0.0000 C   0  0  0  0  0  0  0  0  0  0  0  0
   -1.1485    2.3596    0.0000 N   0  0  0  0  0  0  0  0  0  0  0  0
   -2.6441    2.4740    0.0000 N   0  0  0  0  0  0  0  0  0  0  0  0
   -3.2151    1.0869    0.0000 C   0  0  0  0  0  0  0  0  0  0  0  0
   -4.6729    0.7336    0.0000 C   0  0  0  0  0  0  0  0  0  0  0  0
   -5.0958   -0.7056    0.0000 C   0  0  0  0  0  0  0  0  0  0  0  0
   -6.5536   -1.0589    0.0000 C   0  0  0  0  0  0  0  0  0  0  0  0
   -7.5885    0.0269    0.0000 C   0  0  0  0  0  0  0  0  0  0  0  0
   -9.0463   -0.3264    0.0000 O   0  0  0  0  0  0  0  0  0  0  0  0
   -9.4692   -1.7656    0.0000 C   0  0  0  0  0  0  0  0  0  0  0  0
   -8.4343   -2.8514    0.0000 C   0  0  0  0  0  0  0  0  0  0  0  0
   -8.8572   -4.2906    0.0000 C   0  0  0  0  0  0  0  0  0  0  0  0
  -10.3149   -4.6439    0.0000 C   0  0  0  0  0  0  0  0  0  0  0  0
  -11.3498   -3.5581    0.0000 C   0  0  0  0  0  0  0  0  0  0  0  0
  -10.9270   -2.1189    0.0000 C   0  0  0  0  0  0  0  0  0  0  0  0
   -7.1656    1.4661    0.0000 C   0  0  0  0  0  0  0  0  0  0  0  0
   -5.7078    1.8194    0.0000 C   0  0  0  0  0  0  0  0  0  0  0  0
   -5.2849    3.2586    0.0000 F   0  0  0  0  0  0  0  0  0  0  0  0
   -2.0724    0.1153    0.0000 C   0  0  0  0  0  0  0  0  0  0  0  0
   -2.0299   -1.3841    0.0000 C   0  0  0  0  0  0  0  0  0  0  0  0
   -3.3071   -2.1707    0.0000 N   0  0  0  0  0  0  0  0  0  0  0  0
   -0.7101   -2.0970    0.0000 N   0  0  0  0  0  0  0  0  0  0  0  0
    0.5672   -1.3105    0.0000 C   0  0  0  0  0  0  0  0  0  0  0  0
    0.5246    0.1889    0.0000 N   0  0  0  0  0  0  0  0  0  0  0  0
   -0.7951    0.9018    0.0000 C   0  0  0  0  0  0  0  0  0  0  0  0
    1.2987    3.2322    0.0000 C   0  0  0  0  0  0  0  0  0  0  0  0
    6.7327   -0.4040    0.0000 N   0  0  0  0  0  0  0  0  0  0  0  0
    5.7610   -1.5467    0.0000 C   0  0  0  0  0  0  0  0  0  0  0  0
    6.2648   -2.9596    0.0000 C   0  0  0  0  0  0  0  0  0  0  0  0
    7.7403   -3.2297    0.0000 N   0  0  0  0  0  0  0  0  0  0  0  0
    8.2440   -4.6426    0.0000 C   0  0  0  0  0  0  0  0  0  0  0  0
    7.6012   -5.9979    0.0000 C   0  0  0  0  0  0  0  0  0  0  0  0
    8.9565   -6.6407    0.0000 O   0  0  0  0  0  0  0  0  0  0  0  0
    9.5993   -5.2854    0.0000 C   0  0  0  0  0  0  0  0  0  0  0  0
    8.7119   -2.0870    0.0000 C   0  0  0  0  0  0  0  0  0  0  0  0
    8.2082   -0.6741    0.0000 C   0  0  0  0  0  0  0  0  0  0  0  0
  1  2  1  0
  2  3  1  0
  2  4  1  0
  4  5  2  0
  5  6  1  0
  6  7  3  0
  5  8  1  0
  8  9  2  0
  8 10  1  0
 10 11  1  0
 11 12  1  0
 12 13  1  0
 13 14  1  0
 14 15  1  6
 15 16  1  0
 16 17  2  0
 17 18  1  0
 18 19  2  0
 19 20  1  0
 20 21  2  0
 21 22  1  0
 22 23  1  0
 23 24  2  0
 24 25  1  0
 25 26  2  0
 26 27  1  0
 27 28  2  0
 21 29  1  0
 29 30  2  0
 30 31  1  0
 17 32  1  0
 32 33  2  0
 33 34  1  0
 33 35  1  0
 35 36  2  0
 36 37  1  0
 37 38  2  0
 14 39  1  0
  2 40  1  0
 40 41  1  0
 41 42  1  0
 42 43  1  0
 43 44  1  0
 44 45  1  0
 45 46  1  0
 46 47  1  0
 43 48  1  0
 48 49  1  0
 39 10  1  0
 49 40  1  0
 38 15  1  0
 47 44  1  0
 30 18  1  0
 38 32  1  0
 28 23  1  0
M  END
>  <BrandName>  (319) 


>  <Applicants>  (319) 
Principia Biopharma

>  <CHEMBL_ID>  (319) 
CHEMBL3702854

>  <Canonical_Smiles>  (319) 
CC(C)(/C=C(\C#N)C(=O)N1CCC[C@@H](n2nc(-c3ccc(Oc4ccccc4)cc3F)c3c(N)ncnc32)C1)N1CCN(C2COC2)CC1

>  <Chirality>  (319) 
Single Stereoisomer

>  <First_Approval>  (319) 
nan

>  <Phase>  (319) 
3.0

>  <SC_Patent>  (319) 
nan

>  <Synonyms>  (319) 
PRN-1008 | PRN1008 | RILZABRUTINIB

>  <Withdrawn>  (319) 
nan

>  <Indications>  (319) 
nan

>  <Type>  (319) 
nan

>  <targets_id>  (319) 
nan

>  <Inchi>  (319) 
InChI=1S/C36H40FN9O3/c1-36(2,45-15-13-43(14-16-45)26-21-48-22-26)18-24(19-38)35(47)44-12-6-7-25(20-44)46-34-31(33(39)40-23-41-34)32(42-46)29-11-10-28(17-30(29)37)49-27-8-4-3-5-9-27/h3-5,8-11,17-18,23,25-26H,6-7,12-16,20-22H2,1-2H3,(H2,39,40,41)/b24-18+/t25-/m1/s1

>  <stdInchikey>  (319) 
LCFFREMLXLZNHE-GBOLQPHISA-N

>  <csid>  (319) 
58893525

>  <Links>  (319) 
|http://www.chemspider.com/Chemical-Structure.58893525.html|https://www.ebi.ac.uk/chembldb/compound/inspect/CHEMBL3702854|https://pubchem.ncbi.nlm.nih.gov/compound/73388818|https://go.drugbank.com/drugs/DB17709|https://www.rcsb.org/ligand/R1L|https://www.ebi.ac.uk/pdbe-srv/pdbechem/chemicalCompound/show/R1L|https://www.guidetopharmacology.org/GRAC/LigandDisplayForward?9993|https://zinc15.docking.org/substances/ZINC000207730864|https://precision.fda.gov/uniisearch/srs/unii/5G1WE425BI

>  <LinkName>  (319) 
|ChemSpider|ChEMBL|PubChem|DrugBank|RCSB|PDBe|Guide to Pharmacology|ZINC|FDA SRS

>  <lig_pdb_ID>  (319) 
R1L

>  <pdb_IDs>  (319) 
7l5o 7l5p

>  <indicationDB>  (319) 


>  <uniprotId>  (319) 


>  <indicationG2P>  (319) 
None

>  <MW>  (319) 
665.3

>  <HBA>  (319) 
11

>  <HBD>  (319) 
1

>  <NRB>  (319) 
8

>  <TPSA>  (319) 
138.7

>  <LogP>  (319) 
4.4

>  <RoF>  (319) 
2

>  <Melting point>  (319) 
nan

>  <Targets>  (319) 
nan

>  <Kinase families>  (319) 


>  <FDA_approved>  (319) 


$$$$
Fenebrutinib
     RDKit          2D

 49 56  0  0  0  0  0  0  0  0999 V2000
    9.6038    2.2700    0.0000 C   0  0  0  0  0  0  0  0  0  0  0  0
    9.7480    0.7769    0.0000 C   0  0  0  0  0  0  0  0  0  0  0  0
   11.1131    0.1553    0.0000 C   0  0  0  0  0  0  0  0  0  0  0  0
   11.2574   -1.3377    0.0000 N   0  0  0  0  0  0  0  0  0  0  0  0
   10.0365   -2.2092    0.0000 C   0  0  0  0  0  0  0  0  0  0  0  0
    8.6713   -1.5876    0.0000 C   0  0  0  0  0  0  0  0  0  0  0  0
    8.5271   -0.0945    0.0000 N   0  0  0  0  0  0  0  0  0  0  0  0
    7.1620    0.5271    0.0000 C   0  0  0  0  0  0  0  0  0  0  0  0
    7.0177    2.0202    0.0000 C   0  0  0  0  0  0  0  0  0  0  0  0
    5.6526    2.6418    0.0000 C   0  0  0  0  0  0  0  0  0  0  0  0
    4.4317    1.7703    0.0000 C   0  0  0  0  0  0  0  0  0  0  0  0
    4.5759    0.2773    0.0000 N   0  0  0  0  0  0  0  0  0  0  0  0
    5.9411   -0.3443    0.0000 C   0  0  0  0  0  0  0  0  0  0  0  0
    3.0665    2.3919    0.0000 N   0  0  0  0  0  0  0  0  0  0  0  0
    1.8456    1.5205    0.0000 C   0  0  0  0  0  0  0  0  0  0  0  0
    0.4805    2.1421    0.0000 C   0  0  0  0  0  0  0  0  0  0  0  0
   -0.7404    1.2707    0.0000 C   0  0  0  0  0  0  0  0  0  0  0  0
   -0.5962   -0.2224    0.0000 C   0  0  0  0  0  0  0  0  0  0  0  0
    0.7690   -0.8440    0.0000 N   0  0  0  0  0  0  0  0  0  0  0  0
    1.9899    0.0274    0.0000 C   0  0  0  0  0  0  0  0  0  0  0  0
    3.3550   -0.5942    0.0000 O   0  0  0  0  0  0  0  0  0  0  0  0
    0.9132   -2.3370    0.0000 C   0  0  0  0  0  0  0  0  0  0  0  0
   -2.1055    1.8923    0.0000 C   0  0  0  0  0  0  0  0  0  0  0  0
   -2.2498    3.3853    0.0000 C   0  0  0  0  0  0  0  0  0  0  0  0
   -3.6149    4.0069    0.0000 C   0  0  0  0  0  0  0  0  0  0  0  0
   -4.8358    3.1355    0.0000 N   0  0  0  0  0  0  0  0  0  0  0  0
   -4.6916    1.6425    0.0000 C   0  0  0  0  0  0  0  0  0  0  0  0
   -3.3264    1.0208    0.0000 C   0  0  0  0  0  0  0  0  0  0  0  0
   -3.1822   -0.4722    0.0000 C   0  0  0  0  0  0  0  0  0  0  0  0
   -4.4031   -1.3436    0.0000 O   0  0  0  0  0  0  0  0  0  0  0  0
   -5.9125    0.7710    0.0000 N   0  0  0  0  0  0  0  0  0  0  0  0
   -5.7682   -0.7220    0.0000 C   0  0  0  0  0  0  0  0  0  0  0  0
   -6.9891   -1.5935    0.0000 C   0  0  0  0  0  0  0  0  0  0  0  0
   -8.3543   -0.9719    0.0000 N   0  0  0  0  0  0  0  0  0  0  0  0
   -8.4985    0.5212    0.0000 C   0  0  0  0  0  0  0  0  0  0  0  0
   -9.9630    0.8454    0.0000 C   0  0  0  0  0  0  0  0  0  0  0  0
  -10.7239   -0.4473    0.0000 C   0  0  0  0  0  0  0  0  0  0  0  0
   -9.7297   -1.5704    0.0000 C   0  0  0  0  0  0  0  0  0  0  0  0
  -10.4906   -2.8631    0.0000 C   0  0  0  0  0  0  0  0  0  0  0  0
  -11.9551   -2.5389    0.0000 C   0  0  0  0  0  0  0  0  0  0  0  0
  -12.0994   -1.0459    0.0000 C   0  0  0  0  0  0  0  0  0  0  0  0
  -12.1244   -4.0293    0.0000 C   0  0  0  0  0  0  0  0  0  0  0  0
  -13.4551   -2.5263    0.0000 C   0  0  0  0  0  0  0  0  0  0  0  0
   -7.2776    1.3926    0.0000 C   0  0  0  0  0  0  0  0  0  0  0  0
   -7.4218    2.8857    0.0000 O   0  0  0  0  0  0  0  0  0  0  0  0
   12.6225   -1.9593    0.0000 C   0  0  0  0  0  0  0  0  0  0  0  0
   13.1483   -3.3642    0.0000 C   0  0  0  0  0  0  0  0  0  0  0  0
   14.5531   -2.8384    0.0000 O   0  0  0  0  0  0  0  0  0  0  0  0
   14.0273   -1.4336    0.0000 C   0  0  0  0  0  0  0  0  0  0  0  0
  2  1  1  1
  2  3  1  0
  3  4  1  0
  4  5  1  0
  5  6  1  0
  6  7  1  0
  7  8  1  0
  8  9  2  0
  9 10  1  0
 10 11  2  0
 11 12  1  0
 12 13  2  0
 11 14  1  0
 14 15  1  0
 15 16  2  0
 16 17  1  0
 17 18  2  0
 18 19  1  0
 19 20  1  0
 20 21  2  0
 19 22  1  0
 17 23  1  0
 23 24  2  0
 24 25  1  0
 25 26  2  0
 26 27  1  0
 27 28  2  0
 28 29  1  0
 29 30  1  0
 27 31  1  0
 31 32  1  0
 32 33  1  0
 33 34  1  0
 34 35  1  0
 35 36  2  0
 36 37  1  0
 37 38  2  0
 38 39  1  0
 39 40  1  0
 40 41  1  0
 40 42  1  0
 40 43  1  0
 35 44  1  0
 44 45  2  0
  4 46  1  0
 46 47  1  0
 47 48  1  0
 48 49  1  0
  7  2  1  0
 13  8  1  0
 20 15  1  0
 28 23  1  0
 44 31  1  0
 38 34  1  0
 41 37  1  0
 49 46  1  0
M  END
>  <BrandName>  (320) 


>  <Applicants>  (320) 
Genentech

>  <CHEMBL_ID>  (320) 
CHEMBL4065122

>  <Canonical_Smiles>  (320) 
C[C@H]1CN(CCN1c2ccc(nc2)Nc3cc(cn(c3=O)C)c4ccnc(c4CO)N5CCn6c(cc7c6CC(C7)(C)C)C5=O)C8COC8

>  <Chirality>  (320) 
Single Stereoisomer

>  <First_Approval>  (320) 
nan

>  <Phase>  (320) 
3.0

>  <SC_Patent>  (320) 
nan

>  <Synonyms>  (320) 
FENEBRUTINIB | G-02599853 | G02599853 | GDC-0853 | RG-7845 | RG7845 | RO-7010939 | RO7010939

>  <Withdrawn>  (320) 
nan

>  <Indications>  (320) 
nan

>  <Type>  (320) 
nan

>  <targets_id>  (320) 
nan

>  <Inchi>  (320) 
InChI=1S/C37H44N8O4/c1-23-18-42(27-21-49-22-27)9-10-43(23)26-5-6-33(39-17-26)40-30-13-25(19-41(4)35(30)47)28-7-8-38-34(29(28)20-46)45-12-11-44-31(36(45)48)14-24-15-37(2,3)16-32(24)44/h5-8,13-14,17,19,23,27,46H,9-12,15-16,18,20-22H2,1-4H3,(H,39,40)/t23-/m0/s1

>  <stdInchikey>  (320) 
WNEODWDFDXWOLU-QHCPKHFHSA-N

>  <csid>  (320) 
58145210

>  <Links>  (320) 
|http://www.chemspider.com/Chemical-Structure.58145210.html|https://www.ebi.ac.uk/chembldb/compound/inspect/CHEMBL4065122|https://pubchem.ncbi.nlm.nih.gov/compound/86567195|https://go.drugbank.com/drugs/DB14785|https://www.rcsb.org/ligand/9AJ|https://www.ebi.ac.uk/pdbe-srv/pdbechem/chemicalCompound/show/9AJ|https://www.guidetopharmacology.org/GRAC/LigandDisplayForward?9299|https://zinc15.docking.org/substances/ZINC000220197997|https://precision.fda.gov/uniisearch/srs/unii/E9L2885WUL|https://www.bindingdb.org/bind/chemsearch/marvin/MolStructure.jsp?monomerid=50244440

>  <LinkName>  (320) 
|ChemSpider|ChEMBL|PubChem|DrugBank|RCSB|PDBe|Guide to Pharmacology|ZINC|FDA SRS|BindingDB

>  <lig_pdb_ID>  (320) 
9AJ

>  <pdb_IDs>  (320) 
5vfi 8gmb 8s93

>  <indicationDB>  (320) 


>  <uniprotId>  (320) 


>  <indicationG2P>  (320) 
None

>  <MW>  (320) 
664.3

>  <HBA>  (320) 
11

>  <HBD>  (320) 
2

>  <NRB>  (320) 
7

>  <TPSA>  (320) 
121.0

>  <LogP>  (320) 
3.6

>  <RoF>  (320) 
2

>  <Melting point>  (320) 
nan

>  <Targets>  (320) 
nan

>  <Kinase families>  (320) 


>  <FDA_approved>  (320) 


$$$$
Dinaciclib
     RDKit          2D

 29 32  0  0  0  0  0  0  0  0999 V2000
   -4.2078   -5.0258    0.0000 C   0  0  0  0  0  0  0  0  0  0  0  0
   -3.7524   -3.5966    0.0000 C   0  0  0  0  0  0  0  0  0  0  0  0
   -2.2870   -3.2764    0.0000 C   0  0  0  0  0  0  0  0  0  0  0  0
   -1.1666   -4.2738    0.0000 C   0  0  0  0  0  0  0  0  0  0  0  0
    0.1282   -3.5165    0.0000 N   0  0  0  0  0  0  0  0  0  0  0  0
   -0.1920   -2.0510    0.0000 N   0  0  0  0  0  0  0  0  0  0  0  0
   -1.6846   -1.9027    0.0000 C   0  0  0  0  0  0  0  0  0  0  0  0
   -2.3025   -0.5359    0.0000 N   0  0  0  0  0  0  0  0  0  0  0  0
   -1.4277    0.6826    0.0000 C   0  0  0  0  0  0  0  0  0  0  0  0
    0.0650    0.5343    0.0000 C   0  0  0  0  0  0  0  0  0  0  0  0
    0.6828   -0.8325    0.0000 C   0  0  0  0  0  0  0  0  0  0  0  0
    2.1755   -0.9809    0.0000 N   0  0  0  0  0  0  0  0  0  0  0  0
    3.0502    0.2376    0.0000 C   0  0  0  0  0  0  0  0  0  0  0  0
    4.5429    0.0893    0.0000 C   0  0  0  0  0  0  0  0  0  0  0  0
    5.1607   -1.2776    0.0000 C   0  0  0  0  0  0  0  0  0  0  0  0
    6.6534   -1.4259    0.0000 C   0  0  0  0  0  0  0  0  0  0  0  0
    7.5282   -0.2074    0.0000 C   0  0  0  0  0  0  0  0  0  0  0  0
    6.9103    1.1594    0.0000 N   0  0  0  0  0  4  0  0  0  0  0  0
    5.4177    1.3078    0.0000 C   0  0  0  0  0  0  0  0  0  0  0  0
    7.7851    2.3779    0.0000 O   0  0  0  0  0  1  0  0  0  0  0  0
   -2.0455    2.0495    0.0000 N   0  0  0  0  0  0  0  0  0  0  0  0
   -1.1707    3.2680    0.0000 C   0  0  0  0  0  0  0  0  0  0  0  0
   -1.7886    4.6348    0.0000 C   0  0  0  0  0  0  0  0  0  0  0  0
   -3.2812    4.7832    0.0000 C   0  0  0  0  0  0  0  0  0  0  0  0
   -4.1560    3.5647    0.0000 C   0  0  0  0  0  0  0  0  0  0  0  0
   -3.5382    2.1978    0.0000 C   0  0  0  0  0  0  0  0  0  0  0  0
   -4.4130    0.9793    0.0000 C   0  0  0  0  0  0  0  0  0  0  0  0
   -5.9056    1.1277    0.0000 C   0  0  0  0  0  0  0  0  0  0  0  0
   -6.7804   -0.0908    0.0000 O   0  0  0  0  0  0  0  0  0  0  0  0
  1  2  1  0
  2  3  1  0
  3  4  1  0
  4  5  2  0
  5  6  1  0
  6  7  1  0
  7  8  1  0
  8  9  2  0
  9 10  1  0
 10 11  2  0
 11 12  1  0
 12 13  1  0
 13 14  1  0
 14 15  2  0
 15 16  1  0
 16 17  2  0
 17 18  1  0
 18 19  2  0
 18 20  1  0
  9 21  1  0
 21 22  1  0
 22 23  1  0
 23 24  1  0
 24 25  1  0
 25 26  1  0
 26 27  1  6
 27 28  1  0
 28 29  1  0
  7  3  2  0
 11  6  1  0
 19 14  1  0
 26 21  1  0
M  CHG  2  18   1  20  -1
M  END
>  <BrandName>  (321) 


>  <Applicants>  (321) 
Schering-Plough

>  <CHEMBL_ID>  (321) 
CHEMBL2103840

>  <Canonical_Smiles>  (321) 
CCc1cnn2c1nc(cc2NCc3ccc[n+](c3)[O-])N4CCCC[C@H]4CCO

>  <Chirality>  (321) 
Single Stereoisomer

>  <First_Approval>  (321) 
nan

>  <Phase>  (321) 
3.0

>  <SC_Patent>  (321) 
nan

>  <Synonyms>  (321) 
DINACICLIB | MK-7965 | SCH 727965 | SCH-727965 | SCH727965

>  <Withdrawn>  (321) 
{''}

>  <Indications>  (321) 
nan

>  <Type>  (321) 
nan

>  <targets_id>  (321) 
P11802|Q00534|Q58F21

>  <Inchi>  (321) 
InChI=1S/C21H28N6O2/c1-2-17-14-23-27-19(22-13-16-6-5-9-25(29)15-16)12-20(24-21(17)27)26-10-4-3-7-18(26)8-11-28/h5-6,9,12,14-15,18,22,28H,2-4,7-8,10-11,13H2,1H3/t18-/m0/s1

>  <stdInchikey>  (321) 
PIMQWRZWLQKKBJ-SFHVURJKSA-N

>  <csid>  (321) 
25027387

>  <Links>  (321) 
|http://www.chemspider.com/Chemical-Structure.25027387.html|https://www.ebi.ac.uk/chembldb/compound/inspect/CHEMBL2103840|https://pubchem.ncbi.nlm.nih.gov/compound/46926350|https://go.drugbank.com/drugs/DB12021|https://www.guidetopharmacology.org/GRAC/LigandDisplayForward?7379|https://zinc15.docking.org/substances/ZINC000034894449|https://precision.fda.gov/uniisearch/srs/unii/4V8ECV0NBQ|https://www.bindingdb.org/bind/chemsearch/marvin/MolStructure.jsp?monomerid=50139171

>  <LinkName>  (321) 
|ChemSpider|ChEMBL|PubChem|DrugBank|Guide to Pharmacology|ZINC|FDA SRS|BindingDB

>  <lig_pdb_ID>  (321) 


>  <pdb_IDs>  (321) 


>  <indicationDB>  (321) 


>  <uniprotId>  (321) 


>  <indicationG2P>  (321) 
None

>  <MW>  (321) 
396.2

>  <HBA>  (321) 
7

>  <HBD>  (321) 
2

>  <NRB>  (321) 
7

>  <TPSA>  (321) 
92.6

>  <LogP>  (321) 
2.3

>  <RoF>  (321) 
0

>  <Melting point>  (321) 
nan

>  <Targets>  (321) 
CDK4; CDK6; BRDT

>  <Kinase families>  (321) 
CMGC<br>(*)

>  <FDA_approved>  (321) 


$$$$
Famitinib
     RDKit          2D

 30 33  0  0  0  0  0  0  0  0999 V2000
  -10.0314    0.9734    0.0000 C   0  0  0  0  0  0  0  0  0  0  0  0
   -8.5839    1.3666    0.0000 C   0  0  0  0  0  0  0  0  0  0  0  0
   -7.5196    0.3096    0.0000 N   0  0  0  0  0  0  0  0  0  0  0  0
   -7.9029   -1.1406    0.0000 C   0  0  0  0  0  0  0  0  0  0  0  0
   -9.3504   -1.5338    0.0000 C   0  0  0  0  0  0  0  0  0  0  0  0
   -6.0720    0.7028    0.0000 C   0  0  0  0  0  0  0  0  0  0  0  0
   -5.0078   -0.3543    0.0000 C   0  0  0  0  0  0  0  0  0  0  0  0
   -3.5602    0.0389    0.0000 N   0  0  0  0  0  0  0  0  0  0  0  0
   -3.1769    1.4891    0.0000 C   0  0  0  0  0  0  0  0  0  0  0  0
   -1.7294    1.8823    0.0000 C   0  0  0  0  0  0  0  0  0  0  0  0
   -0.6651    0.8253    0.0000 C   0  0  0  0  0  0  0  0  0  0  0  0
   -1.0484   -0.6249    0.0000 C   0  0  0  0  0  0  0  0  0  0  0  0
    0.2124   -1.4375    0.0000 C   0  0  0  0  0  0  0  0  0  0  0  0
    1.3749   -0.4896    0.0000 C   0  0  0  0  0  0  0  0  0  0  0  0
    0.8326    0.9089    0.0000 N   0  0  0  0  0  0  0  0  0  0  0  0
    2.8251   -0.8728    0.0000 C   0  0  0  0  0  0  0  0  0  0  0  0
    3.8821    0.1914    0.0000 C   0  0  0  0  0  0  0  0  0  0  0  0
    5.3645   -0.0381    0.0000 C   0  0  0  0  0  0  0  0  0  0  0  0
    6.1857   -1.2933    0.0000 C   0  0  0  0  0  0  0  0  0  0  0  0
    7.6834   -1.2097    0.0000 C   0  0  0  0  0  0  0  0  0  0  0  0
    8.3598    0.1291    0.0000 C   0  0  0  0  0  0  0  0  0  0  0  0
    7.5385    1.3843    0.0000 C   0  0  0  0  0  0  0  0  0  0  0  0
    6.0409    1.3007    0.0000 C   0  0  0  0  0  0  0  0  0  0  0  0
    4.9766    2.3577    0.0000 N   0  0  0  0  0  0  0  0  0  0  0  0
    3.6424    1.6722    0.0000 C   0  0  0  0  0  0  0  0  0  0  0  0
    2.3036    2.3486    0.0000 O   0  0  0  0  0  0  0  0  0  0  0  0
    8.5047   -2.4649    0.0000 F   0  0  0  0  0  0  0  0  0  0  0  0
    0.2961   -2.9352    0.0000 C   0  0  0  0  0  0  0  0  0  0  0  0
   -2.4959   -1.0181    0.0000 C   0  0  0  0  0  0  0  0  0  0  0  0
   -2.8792   -2.4683    0.0000 O   0  0  0  0  0  0  0  0  0  0  0  0
  1  2  1  0
  2  3  1  0
  3  4  1  0
  4  5  1  0
  3  6  1  0
  6  7  1  0
  7  8  1  0
  8  9  1  0
  9 10  1  0
 10 11  1  0
 11 12  2  0
 12 13  1  0
 13 14  2  0
 14 15  1  0
 14 16  1  0
 16 17  2  0
 17 18  1  0
 18 19  2  0
 19 20  1  0
 20 21  2  0
 21 22  1  0
 22 23  2  0
 23 24  1  0
 24 25  1  0
 25 26  2  0
 20 27  1  0
 13 28  1  0
 12 29  1  0
 29 30  2  0
 29  8  1  0
 15 11  1  0
 25 17  1  0
 23 18  1  0
M  END
>  <BrandName>  (322) 


>  <Applicants>  (322) 
Jiangsu Hengrui Medicine

>  <CHEMBL_ID>  (322) 
CHEMBL1278146

>  <Canonical_Smiles>  (322) 
CCN(CC)CCN1CCc2c(c(c([nH]2)/C=C\3/c4cc(ccc4NC3=O)F)C)C1=O

>  <Chirality>  (322) 
Achiral Molecule

>  <First_Approval>  (322) 
nan

>  <Phase>  (322) 
3.0

>  <SC_Patent>  (322) 
nan

>  <Synonyms>  (322) 
FAMITINIB | SHR-1020 | SHR1020

>  <Withdrawn>  (322) 
{'', 'Study NCT04044378 in China was Withdrawn during PHASE1 because toxicity'}

>  <Indications>  (322) 
nan

>  <Type>  (322) 
nan

>  <targets_id>  (322) 
P10721|P35968|P35916|P16234|P09619|P17948|P36888

>  <Inchi>  (322) 
InChI=1S/C23H27FN4O2/c1-4-27(5-2)10-11-28-9-8-19-21(23(28)30)14(3)20(25-19)13-17-16-12-15(24)6-7-18(16)26-22(17)29/h6-7,12-13,25H,4-5,8-11H2,1-3H3,(H,26,29)/b17-13-

>  <stdInchikey>  (322) 
GKEYKDOLBLYGRB-LGMDPLHJSA-N

>  <csid>  (322) 
17595500

>  <Links>  (322) 
|http://www.chemspider.com/Chemical-Structure.17595500.html|https://www.ebi.ac.uk/chembldb/compound/inspect/CHEMBL1278146|https://pubchem.ncbi.nlm.nih.gov/compound/16662431|https://go.drugbank.com/drugs/DB11741|https://www.guidetopharmacology.org/GRAC/LigandDisplayForward?7886|https://precision.fda.gov/uniisearch/srs/unii/768FW21J3L|https://www.bindingdb.org/bind/chemsearch/marvin/MolStructure.jsp?monomerid=50331023

>  <LinkName>  (322) 
|ChemSpider|ChEMBL|PubChem|DrugBank|Guide to Pharmacology|FDA SRS|BindingDB

>  <lig_pdb_ID>  (322) 


>  <pdb_IDs>  (322) 


>  <indicationDB>  (322) 


>  <uniprotId>  (322) 


>  <indicationG2P>  (322) 
None

>  <MW>  (322) 
410.2

>  <HBA>  (322) 
3

>  <HBD>  (322) 
2

>  <NRB>  (322) 
6

>  <TPSA>  (322) 
68.4

>  <LogP>  (322) 
3.3

>  <RoF>  (322) 
0

>  <Melting point>  (322) 
nan

>  <Targets>  (322) 
KIT; KDR; FLT4; PDGFRA; PDGFRB; FLT1; FLT3

>  <Kinase families>  (322) 
Tyr

>  <FDA_approved>  (322) 


$$$$
Ruserontinib
     RDKit          2D

 33 37  0  0  0  0  0  0  0  0999 V2000
   -3.5622    4.1987    0.0000 C   0  0  0  0  0  0  0  0  0  0  0  0
   -4.4914    3.0212    0.0000 C   0  0  0  0  0  0  0  0  0  0  0  0
   -5.9758    3.2371    0.0000 C   0  0  0  0  0  0  0  0  0  0  0  0
   -3.9362    1.6277    0.0000 N   0  0  0  0  0  0  0  0  0  0  0  0
   -4.7372    0.3595    0.0000 C   0  0  0  0  0  0  0  0  0  0  0  0
   -6.2340    0.2621    0.0000 N   0  0  0  0  0  0  0  0  0  0  0  0
   -6.8981   -1.0830    0.0000 C   0  0  0  0  0  0  0  0  0  0  0  0
   -8.3949   -1.1804    0.0000 C   0  0  0  0  0  0  0  0  0  0  0  0
   -9.0589   -2.5254    0.0000 C   0  0  0  0  0  0  0  0  0  0  0  0
   -8.2261   -3.7730    0.0000 C   0  0  0  0  0  0  0  0  0  0  0  0
   -6.7293   -3.6755    0.0000 N   0  0  0  0  0  0  0  0  0  0  0  0
   -6.0653   -2.3305    0.0000 C   0  0  0  0  0  0  0  0  0  0  0  0
   -3.7785   -0.7942    0.0000 N   0  0  0  0  0  0  0  0  0  0  0  0
   -2.3851   -0.2390    0.0000 C   0  0  0  0  0  0  0  0  0  0  0  0
   -1.0401   -0.9031    0.0000 C   0  0  0  0  0  0  0  0  0  0  0  0
    0.2075   -0.0703    0.0000 N   0  0  0  0  0  0  0  0  0  0  0  0
    0.1101    1.4266    0.0000 C   0  0  0  0  0  0  0  0  0  0  0  0
    1.3577    2.2594    0.0000 N   0  0  0  0  0  0  0  0  0  0  0  0
    2.7027    1.5953    0.0000 C   0  0  0  0  0  0  0  0  0  0  0  0
    2.8001    0.0985    0.0000 C   0  0  0  0  0  0  0  0  0  0  0  0
    4.1451   -0.5656    0.0000 C   0  0  0  0  0  0  0  0  0  0  0  0
    5.3927    0.2672    0.0000 C   0  0  0  0  0  0  0  0  0  0  0  0
    6.7377   -0.3968    0.0000 N   0  0  0  0  0  0  0  0  0  0  0  0
    6.8351   -1.8936    0.0000 C   0  0  0  0  0  0  0  0  0  0  0  0
    8.1801   -2.5577    0.0000 C   0  0  0  0  0  0  0  0  0  0  0  0
    9.4277   -1.7249    0.0000 N   0  0  0  0  0  0  0  0  0  0  0  0
   10.7727   -2.3889    0.0000 C   0  0  0  0  0  0  0  0  0  0  0  0
    9.3303   -0.2281    0.0000 C   0  0  0  0  0  0  0  0  0  0  0  0
    7.9853    0.4360    0.0000 C   0  0  0  0  0  0  0  0  0  0  0  0
    5.2953    1.7641    0.0000 C   0  0  0  0  0  0  0  0  0  0  0  0
    3.9503    2.4281    0.0000 C   0  0  0  0  0  0  0  0  0  0  0  0
   -1.2349    2.0906    0.0000 N   0  0  0  0  0  0  0  0  0  0  0  0
   -2.4825    1.2578    0.0000 C   0  0  0  0  0  0  0  0  0  0  0  0
  1  2  1  0
  2  3  1  0
  2  4  1  0
  4  5  1  0
  5  6  1  0
  6  7  1  0
  7  8  2  0
  8  9  1  0
  9 10  2  0
 10 11  1  0
 11 12  2  0
  5 13  2  0
 13 14  1  0
 14 15  2  0
 15 16  1  0
 16 17  2  0
 17 18  1  0
 18 19  1  0
 19 20  2  0
 20 21  1  0
 21 22  2  0
 22 23  1  0
 23 24  1  0
 24 25  1  0
 25 26  1  0
 26 27  1  0
 26 28  1  0
 28 29  1  0
 22 30  1  0
 30 31  2  0
 17 32  1  0
 32 33  2  0
 33  4  1  0
 12  7  1  0
 33 14  1  0
 31 19  1  0
 29 23  1  0
M  END
>  <BrandName>  (323) 


>  <Applicants>  (323) 
('',)

>  <CHEMBL_ID>  (323) 
CHEMBL3678958

>  <Canonical_Smiles>  (323) 
CC(C)n1c(Nc2cccnc2)nc2cnc(Nc3ccc(N4CCN(C)CC4)cc3)nc21

>  <Chirality>  (323) 
Achiral Molecule

>  <First_Approval>  (323) 
nan

>  <Phase>  (323) 
3.0

>  <SC_Patent>  (323) 
nan

>  <Synonyms>  (323) 
RUSERONTINIB | SKLB 1028 | SKLB-1028 | SKLB1028

>  <Withdrawn>  (323) 
nan

>  <Indications>  (323) 
nan

>  <Type>  (323) 
nan

>  <targets_id>  (323) 
nan

>  <Inchi>  (323) 
InChI=1S/C24H29N9/c1-17(2)33-22-21(29-24(33)28-19-5-4-10-25-15-19)16-26-23(30-22)27-18-6-8-20(9-7-18)32-13-11-31(3)12-14-32/h4-10,15-17H,11-14H2,1-3H3,(H,28,29)(H,26,27,30)

>  <stdInchikey>  (323) 
WSOHOUHPUOAXIN-UHFFFAOYSA-N

>  <csid>  (323) 
58930645

>  <Links>  (323) 
|http://www.chemspider.com/Chemical-Structure.58930645.html|https://www.ebi.ac.uk/chembldb/compound/inspect/CHEMBL3678958|https://pubchem.ncbi.nlm.nih.gov/compound/54760385|https://www.bindingdb.org/bind/chemsearch/marvin/MolStructure.jsp?monomerid=173454

>  <LinkName>  (323) 
|ChemSpider|ChEMBL|PubChem|BindingDB

>  <lig_pdb_ID>  (323) 


>  <pdb_IDs>  (323) 


>  <indicationDB>  (323) 


>  <uniprotId>  (323) 


>  <indicationG2P>  (323) 


>  <MW>  (323) 
443.3

>  <HBA>  (323) 
9

>  <HBD>  (323) 
2

>  <NRB>  (323) 
6

>  <TPSA>  (323) 
87.0

>  <LogP>  (323) 
4.0

>  <RoF>  (323) 
0

>  <Melting point>  (323) 
nan

>  <Targets>  (323) 
nan

>  <Kinase families>  (323) 


>  <FDA_approved>  (323) 


$$$$
Dactolisib
     RDKit          2D

 36 41  0  0  0  0  0  0  0  0999 V2000
    2.3510   -3.0258    0.0000 C   0  0  0  0  0  0  0  0  0  0  0  0
    1.4534   -4.2276    0.0000 C   0  0  0  0  0  0  0  0  0  0  0  0
    0.5559   -5.4294    0.0000 C   0  0  0  0  0  0  0  0  0  0  0  0
    2.6553   -5.1251    0.0000 C   0  0  0  0  0  0  0  0  0  0  0  0
    3.8571   -6.0227    0.0000 N   0  0  0  0  0  0  0  0  0  0  0  0
    0.2516   -3.3300    0.0000 C   0  0  0  0  0  0  0  0  0  0  0  0
   -1.1266   -3.9220    0.0000 C   0  0  0  0  0  0  0  0  0  0  0  0
   -2.3284   -3.0245    0.0000 C   0  0  0  0  0  0  0  0  0  0  0  0
   -2.1520   -1.5349    0.0000 C   0  0  0  0  0  0  0  0  0  0  0  0
   -0.7738   -0.9429    0.0000 C   0  0  0  0  0  0  0  0  0  0  0  0
    0.4280   -1.8404    0.0000 C   0  0  0  0  0  0  0  0  0  0  0  0
   -3.3539   -0.6373    0.0000 N   0  0  0  0  0  0  0  0  0  0  0  0
   -3.3341    0.8626    0.0000 C   0  0  0  0  0  0  0  0  0  0  0  0
   -2.2063    1.8515    0.0000 C   0  0  0  0  0  0  0  0  0  0  0  0
   -0.7859    1.3692    0.0000 C   0  0  0  0  0  0  0  0  0  0  0  0
    0.3419    2.3582    0.0000 C   0  0  0  0  0  0  0  0  0  0  0  0
    0.0494    3.8294    0.0000 C   0  0  0  0  0  0  0  0  0  0  0  0
   -1.3710    4.3116    0.0000 C   0  0  0  0  0  0  0  0  0  0  0  0
   -2.4988    3.3227    0.0000 C   0  0  0  0  0  0  0  0  0  0  0  0
   -3.9192    3.8049    0.0000 N   0  0  0  0  0  0  0  0  0  0  0  0
   -5.0470    2.8160    0.0000 C   0  0  0  0  0  0  0  0  0  0  0  0
   -4.7545    1.3448    0.0000 C   0  0  0  0  0  0  0  0  0  0  0  0
   -5.6520    0.1430    0.0000 N   0  0  0  0  0  0  0  0  0  0  0  0
   -4.7864   -1.0820    0.0000 C   0  0  0  0  0  0  0  0  0  0  0  0
   -5.2687   -2.5024    0.0000 O   0  0  0  0  0  0  0  0  0  0  0  0
   -7.1519    0.1627    0.0000 C   0  0  0  0  0  0  0  0  0  0  0  0
    1.7623    1.8759    0.0000 C   0  0  0  0  0  0  0  0  0  0  0  0
    2.8901    2.8649    0.0000 C   0  0  0  0  0  0  0  0  0  0  0  0
    4.3104    2.3826    0.0000 C   0  0  0  0  0  0  0  0  0  0  0  0
    5.4383    3.3716    0.0000 C   0  0  0  0  0  0  0  0  0  0  0  0
    6.8586    2.8893    0.0000 C   0  0  0  0  0  0  0  0  0  0  0  0
    7.1512    1.4181    0.0000 C   0  0  0  0  0  0  0  0  0  0  0  0
    6.0233    0.4292    0.0000 C   0  0  0  0  0  0  0  0  0  0  0  0
    4.6030    0.9114    0.0000 C   0  0  0  0  0  0  0  0  0  0  0  0
    3.4752   -0.0775    0.0000 N   0  0  0  0  0  0  0  0  0  0  0  0
    2.0548    0.4047    0.0000 C   0  0  0  0  0  0  0  0  0  0  0  0
  1  2  1  0
  2  3  1  0
  2  4  1  0
  4  5  3  0
  2  6  1  0
  6  7  2  0
  7  8  1  0
  8  9  2  0
  9 10  1  0
 10 11  2  0
  9 12  1  0
 12 13  1  0
 13 14  1  0
 14 15  2  0
 15 16  1  0
 16 17  2  0
 17 18  1  0
 18 19  2  0
 19 20  1  0
 20 21  2  0
 21 22  1  0
 22 23  1  0
 23 24  1  0
 24 25  2  0
 23 26  1  0
 16 27  1  0
 27 28  2  0
 28 29  1  0
 29 30  2  0
 30 31  1  0
 31 32  2  0
 32 33  1  0
 33 34  2  0
 34 35  1  0
 35 36  2  0
 11  6  1  0
 24 12  1  0
 22 13  2  0
 19 14  1  0
 36 27  1  0
 34 29  1  0
M  END
>  <BrandName>  (324) 


>  <Applicants>  (324) 
Novartis

>  <CHEMBL_ID>  (324) 
CHEMBL1879463

>  <Canonical_Smiles>  (324) 
CC(C)(C#N)c1ccc(cc1)n2c3c4cc(ccc4ncc3n(c2=O)C)c5cc6ccccc6nc5

>  <Chirality>  (324) 
Achiral Molecule

>  <First_Approval>  (324) 
nan

>  <Phase>  (324) 
3.0

>  <SC_Patent>  (324) 
nan

>  <Synonyms>  (324) 
BEZ-235 | BEZ235 | DACTOLISIB | NSC-751249 | NVP-BEZ-235 | NVP-BEZ235 | NVP-BEZ235-NX | RTB-101 | RTB101

>  <Withdrawn>  (324) 
nan

>  <Indications>  (324) 
nan

>  <Type>  (324) 
nan

>  <targets_id>  (324) 
P42336|P42338|P48736|O00329|P42345

>  <Inchi>  (324) 
InChI=1S/C30H23N5O/c1-30(2,18-31)22-9-11-23(12-10-22)35-28-24-15-19(21-14-20-6-4-5-7-25(20)32-16-21)8-13-26(24)33-17-27(28)34(3)29(35)36/h4-17H,1-3H3

>  <stdInchikey>  (324) 
JOGKUKXHTYWRGZ-UHFFFAOYSA-N

>  <csid>  (324) 
10151099

>  <Links>  (324) 
|http://www.chemspider.com/Chemical-Structure.10151099.html|https://www.ebi.ac.uk/chembldb/compound/inspect/CHEMBL1879463|https://pubchem.ncbi.nlm.nih.gov/compound/11977753|https://go.drugbank.com/drugs/DB11651|https://www.guidetopharmacology.org/GRAC/LigandDisplayForward?7950|https://zinc15.docking.org/substances/ZINC000024760115|https://precision.fda.gov/uniisearch/srs/unii/RUJ6Z9Y0DT|https://www.bindingdb.org/bind/chemsearch/marvin/MolStructure.jsp?monomerid=92862

>  <LinkName>  (324) 
|ChemSpider|ChEMBL|PubChem|DrugBank|Guide to Pharmacology|ZINC|FDA SRS|BindingDB

>  <lig_pdb_ID>  (324) 


>  <pdb_IDs>  (324) 


>  <indicationDB>  (324) 


>  <uniprotId>  (324) 


>  <indicationG2P>  (324) 
None

>  <MW>  (324) 
469.2

>  <HBA>  (324) 
6

>  <HBD>  (324) 
0

>  <NRB>  (324) 
3

>  <TPSA>  (324) 
76.5

>  <LogP>  (324) 
5.9

>  <RoF>  (324) 
1

>  <Melting point>  (324) 
nan

>  <Targets>  (324) 
PIK3CA; PIK3CB; PIK3CG; PIK3CD; MTOR

>  <Kinase families>  (324) 
Atypical

>  <FDA_approved>  (324) 


$$$$
Zandelisib
     RDKit          2D

 42 47  0  0  0  0  0  0  0  0999 V2000
    1.7864    4.8980    0.0000 C   0  0  0  0  0  0  0  0  0  0  0  0
    2.6689    3.6851    0.0000 N   0  0  0  0  0  0  0  0  0  0  0  0
    2.0597    2.3144    0.0000 C   0  0  0  0  0  0  0  0  0  0  0  0
    2.9422    1.1014    0.0000 C   0  0  0  0  0  0  0  0  0  0  0  0
    4.4339    1.2592    0.0000 C   0  0  0  0  0  0  0  0  0  0  0  0
    5.3164    0.0463    0.0000 C   0  0  0  0  0  0  0  0  0  0  0  0
    6.8081    0.2041    0.0000 C   0  0  0  0  0  0  0  0  0  0  0  0
    7.6906   -1.0089    0.0000 C   0  0  0  0  0  0  0  0  0  0  0  0
    7.0814   -2.3796    0.0000 C   0  0  0  0  0  0  0  0  0  0  0  0
    5.5897   -2.5374    0.0000 C   0  0  0  0  0  0  0  0  0  0  0  0
    4.7072   -1.3244    0.0000 C   0  0  0  0  0  0  0  0  0  0  0  0
    3.2155   -1.4822    0.0000 C   0  0  0  0  0  0  0  0  0  0  0  0
    2.3330   -0.2693    0.0000 C   0  0  0  0  0  0  0  0  0  0  0  0
    1.1201   -1.1518    0.0000 C   0  0  0  0  0  0  0  0  0  0  0  0
    3.5460    0.6132    0.0000 C   0  0  0  0  0  0  0  0  0  0  0  0
    1.4505    0.9436    0.0000 N   0  0  0  0  0  0  0  0  0  0  0  0
   -0.0411    0.7858    0.0000 C   0  0  0  0  0  0  0  0  0  0  0  0
   -0.9236    1.9988    0.0000 N   0  0  0  0  0  0  0  0  0  0  0  0
   -2.4153    1.8410    0.0000 C   0  0  0  0  0  0  0  0  0  0  0  0
   -3.2978    3.0539    0.0000 N   0  0  0  0  0  0  0  0  0  0  0  0
   -2.6886    4.4247    0.0000 C   0  0  0  0  0  0  0  0  0  0  0  0
   -3.5711    5.6376    0.0000 C   0  0  0  0  0  0  0  0  0  0  0  0
   -5.0628    5.4798    0.0000 O   0  0  0  0  0  0  0  0  0  0  0  0
   -5.6720    4.1091    0.0000 C   0  0  0  0  0  0  0  0  0  0  0  0
   -4.7895    2.8961    0.0000 C   0  0  0  0  0  0  0  0  0  0  0  0
   -3.0245    0.4703    0.0000 N   0  0  0  0  0  0  0  0  0  0  0  0
   -2.1420   -0.7427    0.0000 C   0  0  0  0  0  0  0  0  0  0  0  0
   -2.7512   -2.1134    0.0000 N   0  0  0  0  0  0  0  0  0  0  0  0
   -4.2182   -2.4262    0.0000 C   0  0  0  0  0  0  0  0  0  0  0  0
   -5.3336   -1.4233    0.0000 C   0  0  0  0  0  0  0  0  0  0  0  0
   -5.0227    0.0441    0.0000 F   0  0  0  0  0  0  0  0  0  0  0  0
   -6.7599   -1.8878    0.0000 F   0  0  0  0  0  0  0  0  0  0  0  0
   -4.3740   -3.9181    0.0000 N   0  0  0  0  0  0  0  0  0  0  0  0
   -3.0033   -4.5273    0.0000 C   0  0  0  0  0  0  0  0  0  0  0  0
   -2.5388   -5.9536    0.0000 C   0  0  0  0  0  0  0  0  0  0  0  0
   -1.0714   -6.2645    0.0000 C   0  0  0  0  0  0  0  0  0  0  0  0
   -0.0684   -5.1491    0.0000 C   0  0  0  0  0  0  0  0  0  0  0  0
   -0.5329   -3.7228    0.0000 C   0  0  0  0  0  0  0  0  0  0  0  0
   -2.0003   -3.4119    0.0000 C   0  0  0  0  0  0  0  0  0  0  0  0
   -0.6503   -0.5849    0.0000 N   0  0  0  0  0  0  0  0  0  0  0  0
    5.0431    2.6299    0.0000 C   0  0  0  0  0  0  0  0  0  0  0  0
    4.1606    3.8429    0.0000 C   0  0  0  0  0  0  0  0  0  0  0  0
  1  2  1  0
  2  3  1  0
  3  4  1  0
  4  5  1  0
  5  6  1  0
  6  7  2  0
  7  8  1  0
  8  9  2  0
  9 10  1  0
 10 11  2  0
 11 12  1  0
 12 13  1  0
 13 14  1  0
 13 15  1  0
 13 16  1  0
 16 17  1  0
 17 18  2  0
 18 19  1  0
 19 20  1  0
 20 21  1  0
 21 22  1  0
 22 23  1  0
 23 24  1  0
 24 25  1  0
 19 26  2  0
 26 27  1  0
 27 28  1  0
 28 29  1  0
 29 30  1  0
 30 31  1  0
 30 32  1  0
 29 33  2  0
 33 34  1  0
 34 35  2  0
 35 36  1  0
 36 37  2  0
 37 38  1  0
 38 39  2  0
 27 40  2  0
  5 41  1  0
 41 42  1  0
 42  2  1  0
 11  6  1  0
 40 17  1  0
 25 20  1  0
 39 28  1  0
 39 34  1  0
M  END
>  <BrandName>  (325) 


>  <Applicants>  (325) 
Pathway Therapeutics

>  <CHEMBL_ID>  (325) 
CHEMBL4650214

>  <Canonical_Smiles>  (325) 
CN1CCC(c2ccccc2CC(C)(C)Nc2nc(N3CCOCC3)nc(-n3c(C(F)F)nc4ccccc43)n2)CC1

>  <Chirality>  (325) 
Achiral Molecule

>  <First_Approval>  (325) 
nan

>  <Phase>  (325) 
3.0

>  <SC_Patent>  (325) 
nan

>  <Synonyms>  (325) 
ACC-524 | ME-401 | PW-143 | PWT-143 | PWT143 | ZANDELISIB

>  <Withdrawn>  (325) 
nan

>  <Indications>  (325) 
nan

>  <Type>  (325) 
nan

>  <targets_id>  (325) 
nan

>  <Inchi>  (325) 
InChI=1S/C31H38F2N8O/c1-31(2,20-22-8-4-5-9-23(22)21-12-14-39(3)15-13-21)38-28-35-29(40-16-18-42-19-17-40)37-30(36-28)41-25-11-7-6-10-24(25)34-27(41)26(32)33/h4-11,21,26H,12-20H2,1-3H3,(H,35,36,37,38)

>  <stdInchikey>  (325) 
WPFUFWIHMYZXSF-UHFFFAOYSA-N

>  <csid>  (325) 
57617733

>  <Links>  (325) 
|http://www.chemspider.com/Chemical-Structure.57617733.html|https://www.ebi.ac.uk/chembldb/compound/inspect/CHEMBL4650214|https://pubchem.ncbi.nlm.nih.gov/compound/66571003|https://go.drugbank.com/drugs/DB18245|https://www.guidetopharmacology.org/GRAC/LigandDisplayForward?10627|https://zinc15.docking.org/substances/ZINC000148868634|https://precision.fda.gov/uniisearch/srs/unii/8Z28M5SX0X

>  <LinkName>  (325) 
|ChemSpider|ChEMBL|PubChem|DrugBank|Guide to Pharmacology|ZINC|FDA SRS

>  <lig_pdb_ID>  (325) 


>  <pdb_IDs>  (325) 


>  <indicationDB>  (325) 


>  <uniprotId>  (325) 


>  <indicationG2P>  (325) 
None

>  <MW>  (325) 
576.3

>  <HBA>  (325) 
9

>  <HBD>  (325) 
1

>  <NRB>  (325) 
8

>  <TPSA>  (325) 
84.2

>  <LogP>  (325) 
5.2

>  <RoF>  (325) 
2

>  <Melting point>  (325) 
nan

>  <Targets>  (325) 
nan

>  <Kinase families>  (325) 


>  <FDA_approved>  (325) 


$$$$
Evobrutinib
     RDKit          2D

 32 35  0  0  0  0  0  0  0  0999 V2000
   -8.5569    0.9200    0.0000 C   0  0  0  0  0  0  0  0  0  0  0  0
   -7.1885    1.5343    0.0000 C   0  0  0  0  0  0  0  0  0  0  0  0
   -5.9723    0.6564    0.0000 C   0  0  0  0  0  0  0  0  0  0  0  0
   -6.1245   -0.8359    0.0000 O   0  0  0  0  0  0  0  0  0  0  0  0
   -4.6038    1.2707    0.0000 N   0  0  0  0  0  0  0  0  0  0  0  0
   -4.4516    2.7629    0.0000 C   0  0  0  0  0  0  0  0  0  0  0  0
   -3.0832    3.3772    0.0000 C   0  0  0  0  0  0  0  0  0  0  0  0
   -1.8669    2.4992    0.0000 C   0  0  0  0  0  0  0  0  0  0  0  0
   -2.0192    1.0070    0.0000 C   0  0  0  0  0  0  0  0  0  0  0  0
   -3.3876    0.3927    0.0000 C   0  0  0  0  0  0  0  0  0  0  0  0
   -0.4985    3.1135    0.0000 C   0  0  0  0  0  0  0  0  0  0  0  0
    0.7177    2.2356    0.0000 N   0  0  0  0  0  0  0  0  0  0  0  0
    2.0862    2.8499    0.0000 C   0  0  0  0  0  0  0  0  0  0  0  0
    3.3024    1.9719    0.0000 C   0  0  0  0  0  0  0  0  0  0  0  0
    4.6708    2.5862    0.0000 C   0  0  0  0  0  0  0  0  0  0  0  0
    4.8231    4.0785    0.0000 N   0  0  0  0  0  0  0  0  0  0  0  0
    3.6069    4.9564    0.0000 C   0  0  0  0  0  0  0  0  0  0  0  0
    2.2384    4.3421    0.0000 N   0  0  0  0  0  0  0  0  0  0  0  0
    5.8871    1.7082    0.0000 N   0  0  0  0  0  0  0  0  0  0  0  0
    3.1502    0.4797    0.0000 C   0  0  0  0  0  0  0  0  0  0  0  0
    1.7817   -0.1346    0.0000 C   0  0  0  0  0  0  0  0  0  0  0  0
    1.6295   -1.6269    0.0000 C   0  0  0  0  0  0  0  0  0  0  0  0
    2.8457   -2.5049    0.0000 C   0  0  0  0  0  0  0  0  0  0  0  0
    4.2141   -1.8906    0.0000 C   0  0  0  0  0  0  0  0  0  0  0  0
    4.3664   -0.3983    0.0000 C   0  0  0  0  0  0  0  0  0  0  0  0
    2.6935   -3.9971    0.0000 O   0  0  0  0  0  0  0  0  0  0  0  0
    1.3250   -4.6114    0.0000 C   0  0  0  0  0  0  0  0  0  0  0  0
    0.1088   -3.7334    0.0000 C   0  0  0  0  0  0  0  0  0  0  0  0
   -1.2596   -4.3477    0.0000 C   0  0  0  0  0  0  0  0  0  0  0  0
   -1.4119   -5.8400    0.0000 C   0  0  0  0  0  0  0  0  0  0  0  0
   -0.1957   -6.7180    0.0000 C   0  0  0  0  0  0  0  0  0  0  0  0
    1.1728   -6.1037    0.0000 C   0  0  0  0  0  0  0  0  0  0  0  0
  1  2  2  0
  2  3  1  0
  3  4  2  0
  3  5  1  0
  5  6  1  0
  6  7  1  0
  7  8  1  0
  8  9  1  0
  9 10  1  0
  8 11  1  0
 11 12  1  0
 12 13  1  0
 13 14  1  0
 14 15  2  0
 15 16  1  0
 16 17  2  0
 17 18  1  0
 15 19  1  0
 14 20  1  0
 20 21  2  0
 21 22  1  0
 22 23  2  0
 23 24  1  0
 24 25  2  0
 23 26  1  0
 26 27  1  0
 27 28  2  0
 28 29  1  0
 29 30  2  0
 30 31  1  0
 31 32  2  0
 10  5  1  0
 18 13  2  0
 25 20  1  0
 32 27  1  0
M  END
>  <BrandName>  (326) 


>  <Applicants>  (326) 
Merck

>  <CHEMBL_ID>  (326) 
CHEMBL4072833

>  <Canonical_Smiles>  (326) 
C=CC(=O)N1CCC(CC1)CNc2c(c(ncn2)N)c3ccc(cc3)Oc4ccccc4

>  <Chirality>  (326) 
Achiral Molecule

>  <First_Approval>  (326) 
nan

>  <Phase>  (326) 
3.0

>  <SC_Patent>  (326) 
nan

>  <Synonyms>  (326) 
EVOBRUTINIB | M-2951 | M2951 | MSC-2364447C | MSC2364447C

>  <Withdrawn>  (326) 
nan

>  <Indications>  (326) 
nan

>  <Type>  (326) 
nan

>  <targets_id>  (326) 
Q06187

>  <Inchi>  (326) 
InChI=1S/C25H27N5O2/c1-2-22(31)30-14-12-18(13-15-30)16-27-25-23(24(26)28-17-29-25)19-8-10-21(11-9-19)32-20-6-4-3-5-7-20/h2-11,17-18H,1,12-16H2,(H3,26,27,28,29)

>  <stdInchikey>  (326) 
QUIWHXQETADMGN-UHFFFAOYSA-N

>  <csid>  (326) 
58827807

>  <Links>  (326) 
|http://www.chemspider.com/Chemical-Structure.58827807.html|https://www.ebi.ac.uk/chembldb/compound/inspect/CHEMBL4072833|https://pubchem.ncbi.nlm.nih.gov/compound/71479709|https://go.drugbank.com/drugs/DB15170|https://www.rcsb.org/ligand/MZJ|https://www.ebi.ac.uk/pdbe-srv/pdbechem/chemicalCompound/show/MZJ|https://www.guidetopharmacology.org/GRAC/LigandDisplayForward?9752|https://zinc15.docking.org/substances/ZINC000205623965|https://precision.fda.gov/uniisearch/srs/unii/ZA45457L1K|https://www.bindingdb.org/bind/chemsearch/marvin/MolStructure.jsp?monomerid=291522

>  <LinkName>  (326) 
|ChemSpider|ChEMBL|PubChem|DrugBank|RCSB|PDBe|Guide to Pharmacology|ZINC|FDA SRS|BindingDB

>  <lig_pdb_ID>  (326) 
MZJ

>  <pdb_IDs>  (326) 
6omu

>  <indicationDB>  (326) 


>  <uniprotId>  (326) 


>  <indicationG2P>  (326) 
None

>  <MW>  (326) 
429.2

>  <HBA>  (326) 
6

>  <HBD>  (326) 
2

>  <NRB>  (326) 
7

>  <TPSA>  (326) 
93.4

>  <LogP>  (326) 
4.4

>  <RoF>  (326) 
0

>  <Melting point>  (326) 
nan

>  <Targets>  (326) 
BTK

>  <Kinase families>  (326) 
Tyr

>  <FDA_approved>  (326) 


$$$$
Ripasudil
     RDKit          2D

 22 24  0  0  0  0  0  0  0  0999 V2000
   -1.0610    2.0019    0.0000 C   0  0  0  0  0  0  0  0  0  0  0  0
   -2.2429    1.0783    0.0000 C   0  0  0  0  0  0  0  0  0  0  0  0
   -3.5878    1.7424    0.0000 C   0  0  0  0  0  0  0  0  0  0  0  0
   -4.9457    1.1050    0.0000 N   0  0  0  0  0  0  0  0  0  0  0  0
   -5.2939   -0.3540    0.0000 C   0  0  0  0  0  0  0  0  0  0  0  0
   -4.3703   -1.5360    0.0000 C   0  0  0  0  0  0  0  0  0  0  0  0
   -2.8704   -1.5508    0.0000 C   0  0  0  0  0  0  0  0  0  0  0  0
   -1.9236   -0.3873    0.0000 N   0  0  0  0  0  0  0  0  0  0  0  0
   -0.4646   -0.7356    0.0000 S   0  0  0  0  0  0  0  0  0  0  0  0
   -0.8128   -2.1946    0.0000 O   0  0  0  0  0  0  0  0  0  0  0  0
   -0.1163    0.7235    0.0000 O   0  0  0  0  0  0  0  0  0  0  0  0
    0.9945   -1.0838    0.0000 C   0  0  0  0  0  0  0  0  0  0  0  0
    1.4224   -2.5214    0.0000 C   0  0  0  0  0  0  0  0  0  0  0  0
    2.8814   -2.8696    0.0000 C   0  0  0  0  0  0  0  0  0  0  0  0
    3.9125   -1.7802    0.0000 C   0  0  0  0  0  0  0  0  0  0  0  0
    3.4846   -0.3425    0.0000 C   0  0  0  0  0  0  0  0  0  0  0  0
    2.0255    0.0057    0.0000 C   0  0  0  0  0  0  0  0  0  0  0  0
    1.5976    1.4433    0.0000 C   0  0  0  0  0  0  0  0  0  0  0  0
    2.6287    2.5328    0.0000 C   0  0  0  0  0  0  0  0  0  0  0  0
    4.0877    2.1846    0.0000 N   0  0  0  0  0  0  0  0  0  0  0  0
    4.5156    0.7469    0.0000 C   0  0  0  0  0  0  0  0  0  0  0  0
    0.1386    1.7915    0.0000 F   0  0  0  0  0  0  0  0  0  0  0  0
  2  1  1  6
  2  3  1  0
  3  4  1  0
  4  5  1  0
  5  6  1  0
  6  7  1  0
  7  8  1  0
  8  9  1  0
  9 10  2  0
  9 11  2  0
  9 12  1  0
 12 13  2  0
 13 14  1  0
 14 15  2  0
 15 16  1  0
 16 17  2  0
 17 18  1  0
 18 19  2  0
 19 20  1  0
 20 21  2  0
 18 22  1  0
  8  2  1  0
 17 12  1  0
 21 16  1  0
M  END
>  <BrandName>  (327) 


>  <Applicants>  (327) 
Kowa Pharmaceutical

>  <CHEMBL_ID>  (327) 
CHEMBL3426621

>  <Canonical_Smiles>  (327) 
C[C@H]1CNCCCN1S(=O)(=O)c2cccc3c2c(cnc3)F

>  <Chirality>  (327) 
Single Stereoisomer

>  <First_Approval>  (327) 
nan

>  <Phase>  (327) 
3.0

>  <SC_Patent>  (327) 
nan

>  <Synonyms>  (327) 
RIPASUDIL

>  <Withdrawn>  (327) 
{''}

>  <Indications>  (327) 
nan

>  <Type>  (327) 
nan

>  <targets_id>  (327) 
nan

>  <Inchi>  (327) 
InChI=1S/C15H18FN3O2S/c1-11-8-17-6-3-7-19(11)22(20,21)14-5-2-4-12-9-18-10-13(16)15(12)14/h2,4-5,9-11,17H,3,6-8H2,1H3/t11-/m0/s1

>  <stdInchikey>  (327) 
QSKQVZWVLOIIEV-NSHDSACASA-N

>  <csid>  (327) 
8039366

>  <Links>  (327) 
|http://www.chemspider.com/Chemical-Structure.8039366.html|https://www.ebi.ac.uk/chembldb/compound/inspect/CHEMBL3426621|https://pubchem.ncbi.nlm.nih.gov/compound/9863672|https://go.drugbank.com/drugs/DB13165|https://www.guidetopharmacology.org/GRAC/LigandDisplayForward?10423|https://zinc15.docking.org/substances/ZINC000003940873|https://precision.fda.gov/uniisearch/srs/unii/11978226XX|https://www.bindingdb.org/bind/chemsearch/marvin/MolStructure.jsp?monomerid=50087135

>  <LinkName>  (327) 
|ChemSpider|ChEMBL|PubChem|DrugBank|Guide to Pharmacology|ZINC|FDA SRS|BindingDB

>  <lig_pdb_ID>  (327) 


>  <pdb_IDs>  (327) 


>  <indicationDB>  (327) 


>  <uniprotId>  (327) 


>  <indicationG2P>  (327) 
None

>  <MW>  (327) 
323.1

>  <HBA>  (327) 
4

>  <HBD>  (327) 
1

>  <NRB>  (327) 
2

>  <TPSA>  (327) 
62.3

>  <LogP>  (327) 
1.7

>  <RoF>  (327) 
0

>  <Melting point>  (327) 
nan

>  <Targets>  (327) 
nan

>  <Kinase families>  (327) 


>  <FDA_approved>  (327) 


$$$$
Poziotinib
     RDKit          2D

 33 36  0  0  0  0  0  0  0  0999 V2000
   -1.9114    6.7012    0.0000 C   0  0  0  0  0  0  0  0  0  0  0  0
   -2.3000    5.2524    0.0000 O   0  0  0  0  0  0  0  0  0  0  0  0
   -1.2396    4.1915    0.0000 C   0  0  0  0  0  0  0  0  0  0  0  0
    0.2094    4.5794    0.0000 C   0  0  0  0  0  0  0  0  0  0  0  0
    1.2698    3.5184    0.0000 C   0  0  0  0  0  0  0  0  0  0  0  0
    0.8812    2.0696    0.0000 C   0  0  0  0  0  0  0  0  0  0  0  0
   -0.5678    1.6818    0.0000 C   0  0  0  0  0  0  0  0  0  0  0  0
   -1.6282    2.7427    0.0000 C   0  0  0  0  0  0  0  0  0  0  0  0
   -3.0772    2.3549    0.0000 O   0  0  0  0  0  0  0  0  0  0  0  0
   -3.4658    0.9061    0.0000 C   0  0  0  0  0  0  0  0  0  0  0  0
   -4.9148    0.5182    0.0000 C   0  0  0  0  0  0  0  0  0  0  0  0
   -5.3034   -0.9306    0.0000 C   0  0  0  0  0  0  0  0  0  0  0  0
   -4.2430   -1.9915    0.0000 N   0  0  0  0  0  0  0  0  0  0  0  0
   -2.7940   -1.6036    0.0000 C   0  0  0  0  0  0  0  0  0  0  0  0
   -2.4054   -0.1549    0.0000 C   0  0  0  0  0  0  0  0  0  0  0  0
   -4.6316   -3.4403    0.0000 C   0  0  0  0  0  0  0  0  0  0  0  0
   -3.5712   -4.5012    0.0000 O   0  0  0  0  0  0  0  0  0  0  0  0
   -6.0806   -3.8282    0.0000 C   0  0  0  0  0  0  0  0  0  0  0  0
   -6.4692   -5.2769    0.0000 C   0  0  0  0  0  0  0  0  0  0  0  0
    1.9416    1.0087    0.0000 C   0  0  0  0  0  0  0  0  0  0  0  0
    3.3906    1.3966    0.0000 N   0  0  0  0  0  0  0  0  0  0  0  0
    3.7792    2.8454    0.0000 C   0  0  0  0  0  0  0  0  0  0  0  0
    2.7188    3.9063    0.0000 N   0  0  0  0  0  0  0  0  0  0  0  0
    1.5530   -0.4401    0.0000 N   0  0  0  0  0  0  0  0  0  0  0  0
    2.6134   -1.5010    0.0000 C   0  0  0  0  0  0  0  0  0  0  0  0
    2.2248   -2.9498    0.0000 C   0  0  0  0  0  0  0  0  0  0  0  0
    3.2851   -4.0107    0.0000 C   0  0  0  0  0  0  0  0  0  0  0  0
    4.7341   -3.6229    0.0000 C   0  0  0  0  0  0  0  0  0  0  0  0
    5.1227   -2.1741    0.0000 C   0  0  0  0  0  0  0  0  0  0  0  0
    4.0623   -1.1131    0.0000 C   0  0  0  0  0  0  0  0  0  0  0  0
    4.4509    0.3356    0.0000 F   0  0  0  0  0  0  0  0  0  0  0  0
    6.5717   -1.7862    0.0000 Cl  0  0  0  0  0  0  0  0  0  0  0  0
    5.7945   -4.6838    0.0000 Cl  0  0  0  0  0  0  0  0  0  0  0  0
  1  2  1  0
  2  3  1  0
  3  4  2  0
  4  5  1  0
  5  6  2  0
  6  7  1  0
  7  8  2  0
  8  9  1  0
  9 10  1  0
 10 11  1  0
 11 12  1  0
 12 13  1  0
 13 14  1  0
 14 15  1  0
 13 16  1  0
 16 17  2  0
 16 18  1  0
 18 19  2  0
  6 20  1  0
 20 21  2  0
 21 22  1  0
 22 23  2  0
 20 24  1  0
 24 25  1  0
 25 26  2  0
 26 27  1  0
 27 28  2  0
 28 29  1  0
 29 30  2  0
 30 31  1  0
 29 32  1  0
 28 33  1  0
  8  3  1  0
 23  5  1  0
 15 10  1  0
 30 25  1  0
M  END
>  <BrandName>  (328) 


>  <Applicants>  (328) 
Hanmi Pharmaceutical

>  <CHEMBL_ID>  (328) 
CHEMBL3545154

>  <Canonical_Smiles>  (328) 
COc1cc2c(cc1OC3CCN(CC3)C(=O)C=C)c(ncn2)Nc4ccc(c(c4F)Cl)Cl

>  <Chirality>  (328) 
Achiral Molecule

>  <First_Approval>  (328) 
nan

>  <Phase>  (328) 
3.0

>  <SC_Patent>  (328) 
nan

>  <Synonyms>  (328) 
HM 781-36 | HM 781-36B | HM-781-36 | HM-781-36B | HM781-36B | NOV-1201 | NOV-120101 | POZIOTINIB

>  <Withdrawn>  (328) 
{''}

>  <Indications>  (328) 
nan

>  <Type>  (328) 
nan

>  <targets_id>  (328) 
P00533

>  <Inchi>  (328) 
InChI=1S/C23H21Cl2FN4O3/c1-3-20(31)30-8-6-13(7-9-30)33-19-10-14-17(11-18(19)32-2)27-12-28-23(14)29-16-5-4-15(24)21(25)22(16)26/h3-5,10-13H,1,6-9H2,2H3,(H,27,28,29)

>  <stdInchikey>  (328) 
LPFWVDIFUFFKJU-UHFFFAOYSA-N

>  <csid>  (328) 
30687714

>  <Links>  (328) 
|http://www.chemspider.com/Chemical-Structure.30687714.html|https://www.ebi.ac.uk/chembldb/compound/inspect/CHEMBL3545154|https://pubchem.ncbi.nlm.nih.gov/compound/25127713|https://go.drugbank.com/drugs/DB12114|https://www.guidetopharmacology.org/GRAC/LigandDisplayForward?7903|https://zinc15.docking.org/substances/ZINC000095930125|https://precision.fda.gov/uniisearch/srs/unii/OEI6OOU6IK|https://www.bindingdb.org/bind/chemsearch/marvin/MolStructure.jsp?monomerid=50468247

>  <LinkName>  (328) 
|ChemSpider|ChEMBL|PubChem|DrugBank|Guide to Pharmacology|ZINC|FDA SRS|BindingDB

>  <lig_pdb_ID>  (328) 


>  <pdb_IDs>  (328) 


>  <indicationDB>  (328) 


>  <uniprotId>  (328) 


>  <indicationG2P>  (328) 
None

>  <MW>  (328) 
490.1

>  <HBA>  (328) 
6

>  <HBD>  (328) 
1

>  <NRB>  (328) 
6

>  <TPSA>  (328) 
76.6

>  <LogP>  (328) 
5.4

>  <RoF>  (328) 
1

>  <Melting point>  (328) 
nan

>  <Targets>  (328) 
EGFR

>  <Kinase families>  (328) 
Tyr

>  <FDA_approved>  (328) 


$$$$
Pyrotinib
     RDKit          2D

 42 46  0  0  0  0  0  0  0  0999 V2000
   -0.0741   -6.2644    0.0000 C   0  0  0  0  0  0  0  0  0  0  0  0
   -1.1543   -5.2237    0.0000 C   0  0  0  0  0  0  0  0  0  0  0  0
   -0.7930   -3.7678    0.0000 O   0  0  0  0  0  0  0  0  0  0  0  0
   -1.8732   -2.7271    0.0000 C   0  0  0  0  0  0  0  0  0  0  0  0
   -3.3146   -3.1422    0.0000 C   0  0  0  0  0  0  0  0  0  0  0  0
   -4.3948   -2.1014    0.0000 C   0  0  0  0  0  0  0  0  0  0  0  0
   -4.0336   -0.6455    0.0000 C   0  0  0  0  0  0  0  0  0  0  0  0
   -2.5922   -0.2304    0.0000 C   0  0  0  0  0  0  0  0  0  0  0  0
   -1.5120   -1.2712    0.0000 C   0  0  0  0  0  0  0  0  0  0  0  0
   -0.0706   -0.8561    0.0000 N   0  0  0  0  0  0  0  0  0  0  0  0
    1.0096   -1.8969    0.0000 C   0  0  0  0  0  0  0  0  0  0  0  0
    0.6484   -3.3527    0.0000 O   0  0  0  0  0  0  0  0  0  0  0  0
    2.4511   -1.4818    0.0000 C   0  0  0  0  0  0  0  0  0  0  0  0
    3.5312   -2.5226    0.0000 C   0  0  0  0  0  0  0  0  0  0  0  0
    4.9727   -2.1075    0.0000 C   0  0  0  0  0  0  0  0  0  0  0  0
    5.4841   -0.6974    0.0000 C   0  0  0  0  0  0  0  0  0  0  0  0
    6.9832   -0.7480    0.0000 C   0  0  0  0  0  0  0  0  0  0  0  0
    7.3983   -2.1894    0.0000 C   0  0  0  0  0  0  0  0  0  0  0  0
    6.1557   -3.0296    0.0000 N   0  0  0  0  0  0  0  0  0  0  0  0
    6.1051   -4.5288    0.0000 C   0  0  0  0  0  0  0  0  0  0  0  0
   -5.1138    0.3952    0.0000 C   0  0  0  0  0  0  0  0  0  0  0  0
   -6.5552   -0.0199    0.0000 C   0  0  0  0  0  0  0  0  0  0  0  0
   -6.9164   -1.4757    0.0000 C   0  0  0  0  0  0  0  0  0  0  0  0
   -5.8363   -2.5165    0.0000 N   0  0  0  0  0  0  0  0  0  0  0  0
   -7.6354    1.0209    0.0000 C   0  0  0  0  0  0  0  0  0  0  0  0
   -8.7156    2.0617    0.0000 N   0  0  0  0  0  0  0  0  0  0  0  0
   -4.7525    1.8511    0.0000 N   0  0  0  0  0  0  0  0  0  0  0  0
   -3.3111    2.2662    0.0000 C   0  0  0  0  0  0  0  0  0  0  0  0
   -2.2309    1.2254    0.0000 C   0  0  0  0  0  0  0  0  0  0  0  0
   -0.7895    1.6405    0.0000 C   0  0  0  0  0  0  0  0  0  0  0  0
   -0.4283    3.0963    0.0000 C   0  0  0  0  0  0  0  0  0  0  0  0
   -1.5085    4.1371    0.0000 C   0  0  0  0  0  0  0  0  0  0  0  0
   -2.9499    3.7220    0.0000 C   0  0  0  0  0  0  0  0  0  0  0  0
   -1.1472    5.5930    0.0000 Cl  0  0  0  0  0  0  0  0  0  0  0  0
    1.0131    3.5114    0.0000 O   0  0  0  0  0  0  0  0  0  0  0  0
    2.0933    2.4707    0.0000 C   0  0  0  0  0  0  0  0  0  0  0  0
    3.5348    2.8858    0.0000 C   0  0  0  0  0  0  0  0  0  0  0  0
    4.6149    1.8450    0.0000 C   0  0  0  0  0  0  0  0  0  0  0  0
    6.0564    2.2601    0.0000 C   0  0  0  0  0  0  0  0  0  0  0  0
    6.4176    3.7159    0.0000 C   0  0  0  0  0  0  0  0  0  0  0  0
    5.3374    4.7567    0.0000 C   0  0  0  0  0  0  0  0  0  0  0  0
    3.8960    4.3416    0.0000 N   0  0  0  0  0  0  0  0  0  0  0  0
  1  2  1  0
  2  3  1  0
  3  4  1  0
  4  5  2  0
  5  6  1  0
  6  7  2  0
  7  8  1  0
  8  9  2  0
  9 10  1  0
 10 11  1  0
 11 12  2  0
 11 13  1  0
 13 14  2  0
 15 14  1  1
 15 16  1  0
 16 17  1  0
 17 18  1  0
 18 19  1  0
 19 20  1  0
  7 21  1  0
 21 22  2  0
 22 23  1  0
 23 24  2  0
 22 25  1  0
 25 26  3  0
 21 27  1  0
 27 28  1  0
 28 29  2  0
 29 30  1  0
 30 31  2  0
 31 32  1  0
 32 33  2  0
 32 34  1  0
 31 35  1  0
 35 36  1  0
 36 37  1  0
 37 38  2  0
 38 39  1  0
 39 40  2  0
 40 41  1  0
 41 42  2  0
  9  4  1  0
 24  6  1  0
 19 15  1  0
 33 28  1  0
 42 37  1  0
M  END
>  <BrandName>  (329) 


>  <Applicants>  (329) 
Hengrui Therapeutics

>  <CHEMBL_ID>  (329) 
CHEMBL3647420

>  <Canonical_Smiles>  (329) 
CCOc1cc2c(cc1NC(=O)/C=C/[C@H]3CCCN3C)c(c(cn2)C#N)Nc4ccc(c(c4)Cl)OCc5ccccn5

>  <Chirality>  (329) 
Single Stereoisomer

>  <First_Approval>  (329) 
nan

>  <Phase>  (329) 
3.0

>  <SC_Patent>  (329) 
nan

>  <Synonyms>  (329) 
PYROTINIB | SHR-1258

>  <Withdrawn>  (329) 
{''}

>  <Indications>  (329) 
nan

>  <Type>  (329) 
nan

>  <targets_id>  (329) 
P00533|P04626

>  <Inchi>  (329) 
InChI=1S/C32H31ClN6O3/c1-3-41-30-17-27-25(16-28(30)38-31(40)12-10-24-8-6-14-39(24)2)32(21(18-34)19-36-27)37-22-9-11-29(26(33)15-22)42-20-23-7-4-5-13-35-23/h4-5,7,9-13,15-17,19,24H,3,6,8,14,20H2,1-2H3,(H,36,37)(H,38,40)/b12-10+/t24-/m1/s1

>  <stdInchikey>  (329) 
SADXACCFNXBCFY-IYNHSRRRSA-N

>  <csid>  (329) 
52083721

>  <Links>  (329) 
|http://www.chemspider.com/Chemical-Structure.52083721.html|https://www.ebi.ac.uk/chembldb/compound/inspect/CHEMBL3647420|https://pubchem.ncbi.nlm.nih.gov/compound/51039030|https://go.drugbank.com/drugs/DB14993|https://www.guidetopharmacology.org/GRAC/LigandDisplayForward?9662|https://zinc15.docking.org/substances/ZINC000068250550|https://precision.fda.gov/uniisearch/srs/unii/CJN36EQM0H|https://www.bindingdb.org/bind/chemsearch/marvin/MolStructure.jsp?monomerid=139991

>  <LinkName>  (329) 
|ChemSpider|ChEMBL|PubChem|DrugBank|Guide to Pharmacology|ZINC|FDA SRS|BindingDB

>  <lig_pdb_ID>  (329) 


>  <pdb_IDs>  (329) 


>  <indicationDB>  (329) 


>  <uniprotId>  (329) 


>  <indicationG2P>  (329) 
None

>  <MW>  (329) 
582.2

>  <HBA>  (329) 
8

>  <HBD>  (329) 
2

>  <NRB>  (329) 
10

>  <TPSA>  (329) 
112.4

>  <LogP>  (329) 
6.5

>  <RoF>  (329) 
2

>  <Melting point>  (329) 
nan

>  <Targets>  (329) 
EGFR; ERBB2

>  <Kinase families>  (329) 
Tyr

>  <FDA_approved>  (329) 


$$$$
Selonsertib
     RDKit          2D

 33 37  0  0  0  0  0  0  0  0999 V2000
    5.4893   -3.3903    0.0000 C   0  0  0  0  0  0  0  0  0  0  0  0
    4.1043   -2.8144    0.0000 C   0  0  0  0  0  0  0  0  0  0  0  0
    2.9130   -3.7259    0.0000 C   0  0  0  0  0  0  0  0  0  0  0  0
    1.5280   -3.1500    0.0000 C   0  0  0  0  0  0  0  0  0  0  0  0
    1.3342   -1.6626    0.0000 C   0  0  0  0  0  0  0  0  0  0  0  0
    2.5254   -0.7511    0.0000 C   0  0  0  0  0  0  0  0  0  0  0  0
    3.9105   -1.3269    0.0000 C   0  0  0  0  0  0  0  0  0  0  0  0
    5.1017   -0.4154    0.0000 N   0  0  0  0  0  0  0  0  0  0  0  0
    5.0645    1.0841    0.0000 C   0  0  0  0  0  0  0  0  0  0  0  0
    6.4791    1.5830    0.0000 C   0  0  0  0  0  0  0  0  0  0  0  0
    7.3907    0.3917    0.0000 N   0  0  0  0  0  0  0  0  0  0  0  0
    6.5394   -0.8433    0.0000 C   0  0  0  0  0  0  0  0  0  0  0  0
    6.9071    3.0206    0.0000 C   0  0  0  0  0  0  0  0  0  0  0  0
    6.5589    4.4796    0.0000 C   0  0  0  0  0  0  0  0  0  0  0  0
    7.9965    4.0517    0.0000 C   0  0  0  0  0  0  0  0  0  0  0  0
   -0.0509   -1.0867    0.0000 C   0  0  0  0  0  0  0  0  0  0  0  0
   -1.2421   -1.9983    0.0000 O   0  0  0  0  0  0  0  0  0  0  0  0
   -0.2447    0.4007    0.0000 N   0  0  0  0  0  0  0  0  0  0  0  0
   -1.6297    0.9766    0.0000 C   0  0  0  0  0  0  0  0  0  0  0  0
   -1.8235    2.4640    0.0000 C   0  0  0  0  0  0  0  0  0  0  0  0
   -3.2086    3.0399    0.0000 C   0  0  0  0  0  0  0  0  0  0  0  0
   -4.3998    2.1283    0.0000 C   0  0  0  0  0  0  0  0  0  0  0  0
   -4.2060    0.6409    0.0000 C   0  0  0  0  0  0  0  0  0  0  0  0
   -2.8210    0.0650    0.0000 N   0  0  0  0  0  0  0  0  0  0  0  0
   -5.3973   -0.2706    0.0000 C   0  0  0  0  0  0  0  0  0  0  0  0
   -5.3600   -1.7702    0.0000 N   0  0  0  0  0  0  0  0  0  0  0  0
   -6.7746   -2.2690    0.0000 N   0  0  0  0  0  0  0  0  0  0  0  0
   -7.6862   -1.0777    0.0000 C   0  0  0  0  0  0  0  0  0  0  0  0
   -6.8349    0.1573    0.0000 N   0  0  0  0  0  0  0  0  0  0  0  0
   -7.3337    1.5720    0.0000 C   0  0  0  0  0  0  0  0  0  0  0  0
   -8.8083    1.8473    0.0000 C   0  0  0  0  0  0  0  0  0  0  0  0
   -6.3580    2.7113    0.0000 C   0  0  0  0  0  0  0  0  0  0  0  0
    0.3367   -4.0616    0.0000 F   0  0  0  0  0  0  0  0  0  0  0  0
  1  2  1  0
  2  3  2  0
  3  4  1  0
  4  5  2  0
  5  6  1  0
  6  7  2  0
  7  8  1  0
  8  9  1  0
  9 10  2  0
 10 11  1  0
 11 12  2  0
 10 13  1  0
 13 14  1  0
 14 15  1  0
  5 16  1  0
 16 17  2  0
 16 18  1  0
 18 19  1  0
 19 20  2  0
 20 21  1  0
 21 22  2  0
 22 23  1  0
 23 24  2  0
 23 25  1  0
 25 26  2  0
 26 27  1  0
 27 28  2  0
 28 29  1  0
 29 30  1  0
 30 31  1  0
 30 32  1  0
  4 33  1  0
  7  2  1  0
 12  8  1  0
 15 13  1  0
 24 19  1  0
 29 25  1  0
M  END
>  <BrandName>  (330) 


>  <Applicants>  (330) 
Gilead Sciences

>  <CHEMBL_ID>  (330) 
CHEMBL3916717

>  <Canonical_Smiles>  (330) 
Cc1cc(c(cc1n2cc(nc2)C3CC3)C(=O)Nc4cccc(n4)c5nncn5C(C)C)F

>  <Chirality>  (330) 
Achiral Molecule

>  <First_Approval>  (330) 
nan

>  <Phase>  (330) 
3.0

>  <SC_Patent>  (330) 
nan

>  <Synonyms>  (330) 
GS-4997 | SELONSERTIB

>  <Withdrawn>  (330) 
{''}

>  <Indications>  (330) 
nan

>  <Type>  (330) 
nan

>  <targets_id>  (330) 
Q99683

>  <Inchi>  (330) 
InChI=1S/C24H24FN7O/c1-14(2)32-13-27-30-23(32)19-5-4-6-22(28-19)29-24(33)17-10-21(15(3)9-18(17)25)31-11-20(26-12-31)16-7-8-16/h4-6,9-14,16H,7-8H2,1-3H3,(H,28,29,33)

>  <stdInchikey>  (330) 
YIDDLAAKOYYGJG-UHFFFAOYSA-N

>  <csid>  (330) 
44209497

>  <Links>  (330) 
|http://www.chemspider.com/Chemical-Structure.44209497.html|https://www.ebi.ac.uk/chembldb/compound/inspect/CHEMBL3916717|https://pubchem.ncbi.nlm.nih.gov/compound/71245288|https://go.drugbank.com/drugs/DB14916|https://www.rcsb.org/ligand/NJV|https://www.ebi.ac.uk/pdbe-srv/pdbechem/chemicalCompound/show/NJV|https://www.guidetopharmacology.org/GRAC/LigandDisplayForward?9040|https://zinc15.docking.org/substances/ZINC000149387856|https://precision.fda.gov/uniisearch/srs/unii/NS3988A2TC|https://www.bindingdb.org/bind/chemsearch/marvin/MolStructure.jsp?monomerid=50212258

>  <LinkName>  (330) 
|ChemSpider|ChEMBL|PubChem|DrugBank|RCSB|PDBe|Guide to Pharmacology|ZINC|FDA SRS|BindingDB

>  <lig_pdb_ID>  (330) 
NJV

>  <pdb_IDs>  (330) 
6oyt

>  <indicationDB>  (330) 


>  <uniprotId>  (330) 


>  <indicationG2P>  (330) 
None

>  <MW>  (330) 
445.2

>  <HBA>  (330) 
7

>  <HBD>  (330) 
1

>  <NRB>  (330) 
6

>  <TPSA>  (330) 
90.5

>  <LogP>  (330) 
4.7

>  <RoF>  (330) 
0

>  <Melting point>  (330) 
nan

>  <Targets>  (330) 
MAP3K5

>  <Kinase families>  (330) 
STE

>  <FDA_approved>  (330) 


$$$$
Lerociclib
     RDKit          2D

 35 40  0  0  0  0  0  0  0  0999 V2000
   10.6116   -2.1083    0.0000 C   0  0  0  0  0  0  0  0  0  0  0  0
   10.1439   -0.6830    0.0000 C   0  0  0  0  0  0  0  0  0  0  0  0
   11.1444    0.4346    0.0000 C   0  0  0  0  0  0  0  0  0  0  0  0
    8.6758   -0.3754    0.0000 N   0  0  0  0  0  0  0  0  0  0  0  0
    7.6753   -1.4930    0.0000 C   0  0  0  0  0  0  0  0  0  0  0  0
    6.2072   -1.1854    0.0000 C   0  0  0  0  0  0  0  0  0  0  0  0
    5.7396    0.2399    0.0000 N   0  0  0  0  0  0  0  0  0  0  0  0
    6.7400    1.3575    0.0000 C   0  0  0  0  0  0  0  0  0  0  0  0
    8.2081    1.0498    0.0000 C   0  0  0  0  0  0  0  0  0  0  0  0
    4.2714    0.5475    0.0000 C   0  0  0  0  0  0  0  0  0  0  0  0
    3.8038    1.9727    0.0000 C   0  0  0  0  0  0  0  0  0  0  0  0
    2.3357    2.2803    0.0000 C   0  0  0  0  0  0  0  0  0  0  0  0
    1.3352    1.1627    0.0000 C   0  0  0  0  0  0  0  0  0  0  0  0
    1.8029   -0.2625    0.0000 N   0  0  0  0  0  0  0  0  0  0  0  0
    3.2710   -0.5701    0.0000 C   0  0  0  0  0  0  0  0  0  0  0  0
   -0.1329    1.4704    0.0000 N   0  0  0  0  0  0  0  0  0  0  0  0
   -1.1334    0.3527    0.0000 C   0  0  0  0  0  0  0  0  0  0  0  0
   -0.6657   -1.0725    0.0000 N   0  0  0  0  0  0  0  0  0  0  0  0
   -1.6662   -2.1901    0.0000 C   0  0  0  0  0  0  0  0  0  0  0  0
   -3.1343   -1.8825    0.0000 C   0  0  0  0  0  0  0  0  0  0  0  0
   -4.3453   -2.7677    0.0000 C   0  0  0  0  0  0  0  0  0  0  0  0
   -5.5614   -1.8895    0.0000 C   0  0  0  0  0  0  0  0  0  0  0  0
   -5.1020   -0.4616    0.0000 N   0  0  0  0  0  0  0  0  0  0  0  0
   -3.6020   -0.4572    0.0000 C   0  0  0  0  0  0  0  0  0  0  0  0
   -2.6015    0.6604    0.0000 N   0  0  0  0  0  0  0  0  0  0  0  0
   -6.1089    0.6502    0.0000 C   0  0  0  0  0  0  0  0  0  0  0  0
   -4.6426    0.9663    0.0000 C   0  0  0  0  0  0  0  0  0  0  0  0
   -4.1832    2.3943    0.0000 C   0  0  0  0  0  0  0  0  0  0  0  0
   -5.1901    3.5061    0.0000 C   0  0  0  0  0  0  0  0  0  0  0  0
   -6.6564    3.1900    0.0000 C   0  0  0  0  0  0  0  0  0  0  0  0
   -7.1158    1.7621    0.0000 C   0  0  0  0  0  0  0  0  0  0  0  0
   -7.5752    0.3341    0.0000 C   0  0  0  0  0  0  0  0  0  0  0  0
   -8.0346   -1.0938    0.0000 N   0  0  0  0  0  0  0  0  0  0  0  0
   -7.0277   -2.2056    0.0000 C   0  0  0  0  0  0  0  0  0  0  0  0
   -7.4871   -3.6335    0.0000 O   0  0  0  0  0  0  0  0  0  0  0  0
  1  2  1  0
  2  3  1  0
  2  4  1  0
  4  5  1  0
  5  6  1  0
  6  7  1  0
  7  8  1  0
  8  9  1  0
  7 10  1  0
 10 11  2  0
 11 12  1  0
 12 13  2  0
 13 14  1  0
 14 15  2  0
 13 16  1  0
 16 17  1  0
 17 18  2  0
 18 19  1  0
 19 20  2  0
 20 21  1  0
 21 22  2  0
 22 23  1  0
 23 24  1  0
 24 25  2  0
 23 26  1  0
 26 27  1  0
 27 28  1  0
 28 29  1  0
 29 30  1  0
 30 31  1  0
 26 32  1  0
 32 33  1  0
 33 34  1  0
 34 35  2  0
  9  4  1  0
 15 10  1  0
 25 17  1  0
 24 20  1  0
 34 22  1  0
 31 26  1  0
M  END
>  <BrandName>  (331) 


>  <Applicants>  (331) 
G1 Therapeutics

>  <CHEMBL_ID>  (331) 
CHEMBL3904602

>  <Canonical_Smiles>  (331) 
CC(C)N1CCN(CC1)c2ccc(nc2)Nc3ncc4cc5n(c4n3)C6(CCCCC6)CNC5=O

>  <Chirality>  (331) 
Achiral Molecule

>  <First_Approval>  (331) 
nan

>  <Phase>  (331) 
3.0

>  <SC_Patent>  (331) 
nan

>  <Synonyms>  (331) 
G1T-38 | G1T38 | G1T38 FREE BASE | LEROCICLIB

>  <Withdrawn>  (331) 
{''}

>  <Indications>  (331) 
nan

>  <Type>  (331) 
nan

>  <targets_id>  (331) 
nan

>  <Inchi>  (331) 
InChI=1S/C26H34N8O/c1-18(2)32-10-12-33(13-11-32)20-6-7-22(27-16-20)30-25-28-15-19-14-21-24(35)29-17-26(8-4-3-5-9-26)34(21)23(19)31-25/h6-7,14-16,18H,3-5,8-13,17H2,1-2H3,(H,29,35)(H,27,28,30,31)

>  <stdInchikey>  (331) 
YPJRHEKCFKOVRT-UHFFFAOYSA-N

>  <csid>  (331) 
68007293

>  <Links>  (331) 
|http://www.chemspider.com/Chemical-Structure.68007293.html|https://www.ebi.ac.uk/chembldb/compound/inspect/CHEMBL3904602|https://pubchem.ncbi.nlm.nih.gov/compound/86269224|https://go.drugbank.com/drugs/DB16218|https://www.guidetopharmacology.org/GRAC/LigandDisplayForward?10313|https://precision.fda.gov/uniisearch/srs/unii/WBH8AY6ENB|https://www.bindingdb.org/bind/chemsearch/marvin/MolStructure.jsp?monomerid=253941

>  <LinkName>  (331) 
|ChemSpider|ChEMBL|PubChem|DrugBank|Guide to Pharmacology|FDA SRS|BindingDB

>  <lig_pdb_ID>  (331) 


>  <pdb_IDs>  (331) 


>  <indicationDB>  (331) 


>  <uniprotId>  (331) 


>  <indicationG2P>  (331) 
None

>  <MW>  (331) 
474.3

>  <HBA>  (331) 
8

>  <HBD>  (331) 
2

>  <NRB>  (331) 
4

>  <TPSA>  (331) 
91.2

>  <LogP>  (331) 
3.5

>  <RoF>  (331) 
0

>  <Melting point>  (331) 
nan

>  <Targets>  (331) 
nan

>  <Kinase families>  (331) 


>  <FDA_approved>  (331) 


$$$$
Semaxanib
     RDKit          2D

 18 20  0  0  0  0  0  0  0  0999 V2000
   -3.0634   -3.0466    0.0000 C   0  0  0  0  0  0  0  0  0  0  0  0
   -3.0860   -1.5468    0.0000 C   0  0  0  0  0  0  0  0  0  0  0  0
   -4.3127   -0.6835    0.0000 C   0  0  0  0  0  0  0  0  0  0  0  0
   -3.8707    0.7499    0.0000 C   0  0  0  0  0  0  0  0  0  0  0  0
   -2.3708    0.7725    0.0000 N   0  0  0  0  0  0  0  0  0  0  0  0
   -1.8859   -0.6469    0.0000 C   0  0  0  0  0  0  0  0  0  0  0  0
   -0.4525   -1.0889    0.0000 C   0  0  0  0  0  0  0  0  0  0  0  0
    0.6470   -0.0686    0.0000 C   0  0  0  0  0  0  0  0  0  0  0  0
    2.1187   -0.3583    0.0000 C   0  0  0  0  0  0  0  0  0  0  0  0
    2.8882   -1.6459    0.0000 C   0  0  0  0  0  0  0  0  0  0  0  0
    4.3880   -1.6233    0.0000 C   0  0  0  0  0  0  0  0  0  0  0  0
    5.1184   -0.3131    0.0000 C   0  0  0  0  0  0  0  0  0  0  0  0
    4.3489    0.9745    0.0000 C   0  0  0  0  0  0  0  0  0  0  0  0
    2.8491    0.9519    0.0000 C   0  0  0  0  0  0  0  0  0  0  0  0
    1.8287    2.0514    0.0000 N   0  0  0  0  0  0  0  0  0  0  0  0
    0.4678    1.4207    0.0000 C   0  0  0  0  0  0  0  0  0  0  0  0
   -0.8424    2.1511    0.0000 O   0  0  0  0  0  0  0  0  0  0  0  0
   -4.7705    1.9501    0.0000 C   0  0  0  0  0  0  0  0  0  0  0  0
  1  2  1  0
  2  3  1  0
  3  4  2  0
  4  5  1  0
  5  6  1  0
  6  7  1  0
  7  8  2  0
  8  9  1  0
  9 10  2  0
 10 11  1  0
 11 12  2  0
 12 13  1  0
 13 14  2  0
 14 15  1  0
 15 16  1  0
 16 17  2  0
  4 18  1  0
  6  2  2  0
 16  8  1  0
 14  9  1  0
M  END
>  <BrandName>  (332) 


>  <Applicants>  (332) 
Sugen

>  <CHEMBL_ID>  (332) 
CHEMBL276711

>  <Canonical_Smiles>  (332) 
Cc1cc([nH]c1/C=C\2/c3ccccc3NC2=O)C

>  <Chirality>  (332) 
Achiral Molecule

>  <First_Approval>  (332) 
nan

>  <Phase>  (332) 
3.0

>  <SC_Patent>  (332) 
nan

>  <Synonyms>  (332) 
NSC-696819 | SEMAXANIB | SEMAXINIB | SU-5416 | SU005416 | SU5416

>  <Withdrawn>  (332) 
{''}

>  <Indications>  (332) 
Investigated for use/treatment in colorectal cancer and lung cancer.

>  <Type>  (332) 
1

>  <targets_id>  (332) 
P35968

>  <Inchi>  (332) 
InChI=1S/C15H14N2O/c1-9-7-10(2)16-14(9)8-12-11-5-3-4-6-13(11)17-15(12)18/h3-8,16H,1-2H3,(H,17,18)/b12-8-

>  <stdInchikey>  (332) 
WUWDLXZGHZSWQZ-WQLSENKSSA-N

>  <csid>  (332) 
4486260

>  <Links>  (332) 
|http://www.chemspider.com/Chemical-Structure.4486260.html|https://www.ebi.ac.uk/chembldb/compound/inspect/CHEMBL276711|https://pubchem.ncbi.nlm.nih.gov/compound/5329098|https://go.drugbank.com/drugs/DB06436|https://www.rcsb.org/ligand/X2M|https://www.ebi.ac.uk/pdbe-srv/pdbechem/chemicalCompound/show/X2M|https://www.guidetopharmacology.org/GRAC/LigandDisplayForward?5056|https://zinc15.docking.org/substances/ZINC000012410091|https://precision.fda.gov/uniisearch/srs/unii/71IA9S35AJ|https://www.bindingdb.org/bind/chemsearch/marvin/MolStructure.jsp?monomerid=4810

>  <LinkName>  (332) 
|ChemSpider|ChEMBL|PubChem|DrugBank|RCSB|PDBe|Guide to Pharmacology|ZINC|FDA SRS|BindingDB

>  <lig_pdb_ID>  (332) 
X2M

>  <pdb_IDs>  (332) 
2x2m

>  <indicationDB>  (332) 


>  <uniprotId>  (332) 


>  <indicationG2P>  (332) 
None

>  <MW>  (332) 
238.1

>  <HBA>  (332) 
1

>  <HBD>  (332) 
2

>  <NRB>  (332) 
1

>  <TPSA>  (332) 
44.9

>  <LogP>  (332) 
3.1

>  <RoF>  (332) 
0

>  <Melting point>  (332) 
nan

>  <Targets>  (332) 
KDR

>  <Kinase families>  (332) 
Tyr

>  <FDA_approved>  (332) 


$$$$
Sitravatinib
     RDKit          2D

 45 50  0  0  0  0  0  0  0  0999 V2000
  -16.9051    0.2503    0.0000 C   0  0  0  0  0  0  0  0  0  0  0  0
  -15.7203   -0.6696    0.0000 O   0  0  0  0  0  0  0  0  0  0  0  0
  -14.3312   -0.1035    0.0000 C   0  0  0  0  0  0  0  0  0  0  0  0
  -13.1464   -1.0234    0.0000 C   0  0  0  0  0  0  0  0  0  0  0  0
  -11.7574   -0.4573    0.0000 N   0  0  0  0  0  0  0  0  0  0  0  0
  -10.5726   -1.3772    0.0000 C   0  0  0  0  0  0  0  0  0  0  0  0
   -9.1835   -0.8111    0.0000 C   0  0  0  0  0  0  0  0  0  0  0  0
   -8.9792    0.6749    0.0000 C   0  0  0  0  0  0  0  0  0  0  0  0
   -7.5901    1.2410    0.0000 C   0  0  0  0  0  0  0  0  0  0  0  0
   -6.4053    0.3211    0.0000 C   0  0  0  0  0  0  0  0  0  0  0  0
   -6.6096   -1.1649    0.0000 N   0  0  0  0  0  0  0  0  0  0  0  0
   -7.9987   -1.7310    0.0000 C   0  0  0  0  0  0  0  0  0  0  0  0
   -5.0163    0.8872    0.0000 C   0  0  0  0  0  0  0  0  0  0  0  0
   -4.6578    2.3438    0.0000 C   0  0  0  0  0  0  0  0  0  0  0  0
   -3.1618    2.4529    0.0000 C   0  0  0  0  0  0  0  0  0  0  0  0
   -2.5957    1.0639    0.0000 C   0  0  0  0  0  0  0  0  0  0  0  0
   -3.7418    0.0962    0.0000 S   0  0  0  0  0  0  0  0  0  0  0  0
   -1.1096    0.8596    0.0000 C   0  0  0  0  0  0  0  0  0  0  0  0
   -0.1897    2.0444    0.0000 C   0  0  0  0  0  0  0  0  0  0  0  0
   -0.7558    3.4335    0.0000 C   0  0  0  0  0  0  0  0  0  0  0  0
   -2.2418    3.6377    0.0000 N   0  0  0  0  0  0  0  0  0  0  0  0
   -0.5435   -0.5295    0.0000 O   0  0  0  0  0  0  0  0  0  0  0  0
    0.9425   -0.7338    0.0000 C   0  0  0  0  0  0  0  0  0  0  0  0
    1.5086   -2.1228    0.0000 C   0  0  0  0  0  0  0  0  0  0  0  0
    2.9947   -2.3271    0.0000 C   0  0  0  0  0  0  0  0  0  0  0  0
    3.9146   -1.1423    0.0000 C   0  0  0  0  0  0  0  0  0  0  0  0
    3.3485    0.2468    0.0000 C   0  0  0  0  0  0  0  0  0  0  0  0
    1.8624    0.4510    0.0000 C   0  0  0  0  0  0  0  0  0  0  0  0
    1.2963    1.8401    0.0000 F   0  0  0  0  0  0  0  0  0  0  0  0
    5.4006   -1.3466    0.0000 N   0  0  0  0  0  0  0  0  0  0  0  0
    5.9667   -2.7356    0.0000 C   0  0  0  0  0  0  0  0  0  0  0  0
    5.0468   -3.9204    0.0000 O   0  0  0  0  0  0  0  0  0  0  0  0
    7.4527   -2.9399    0.0000 C   0  0  0  0  0  0  0  0  0  0  0  0
    8.7793   -3.6401    0.0000 C   0  0  0  0  0  0  0  0  0  0  0  0
    7.5096   -4.4388    0.0000 C   0  0  0  0  0  0  0  0  0  0  0  0
    7.9119   -1.5119    0.0000 C   0  0  0  0  0  0  0  0  0  0  0  0
    6.9049   -0.4002    0.0000 O   0  0  0  0  0  0  0  0  0  0  0  0
    9.3782   -1.1956    0.0000 N   0  0  0  0  0  0  0  0  0  0  0  0
    9.8374    0.2324    0.0000 C   0  0  0  0  0  0  0  0  0  0  0  0
   11.3037    0.5487    0.0000 C   0  0  0  0  0  0  0  0  0  0  0  0
   11.7629    1.9766    0.0000 C   0  0  0  0  0  0  0  0  0  0  0  0
   10.7558    3.0883    0.0000 C   0  0  0  0  0  0  0  0  0  0  0  0
    9.2896    2.7720    0.0000 C   0  0  0  0  0  0  0  0  0  0  0  0
    8.8304    1.3440    0.0000 C   0  0  0  0  0  0  0  0  0  0  0  0
   11.2151    4.5163    0.0000 F   0  0  0  0  0  0  0  0  0  0  0  0
  1  2  1  0
  2  3  1  0
  3  4  1  0
  4  5  1  0
  5  6  1  0
  6  7  1  0
  7  8  2  0
  8  9  1  0
  9 10  2  0
 10 11  1  0
 11 12  2  0
 10 13  1  0
 13 14  2  0
 14 15  1  0
 15 16  2  0
 16 17  1  0
 16 18  1  0
 18 19  2  0
 19 20  1  0
 20 21  2  0
 18 22  1  0
 22 23  1  0
 23 24  2  0
 24 25  1  0
 25 26  2  0
 26 27  1  0
 27 28  2  0
 28 29  1  0
 26 30  1  0
 30 31  1  0
 31 32  2  0
 31 33  1  0
 33 34  1  0
 34 35  1  0
 33 36  1  0
 36 37  2  0
 36 38  1  0
 38 39  1  0
 39 40  2  0
 40 41  1  0
 41 42  2  0
 42 43  1  0
 43 44  2  0
 42 45  1  0
 12  7  1  0
 17 13  1  0
 21 15  1  0
 28 23  1  0
 35 33  1  0
 44 39  1  0
M  END
>  <BrandName>  (333) 


>  <Applicants>  (333) 
Mirati Therapeutics

>  <CHEMBL_ID>  (333) 
CHEMBL3989926

>  <Canonical_Smiles>  (333) 
COCCNCc1ccc(nc1)c2cc3c(s2)c(ccn3)Oc4ccc(cc4F)NC(=O)C5(CC5)C(=O)Nc6ccc(cc6)F

>  <Chirality>  (333) 
Achiral Molecule

>  <First_Approval>  (333) 
nan

>  <Phase>  (333) 
3.0

>  <SC_Patent>  (333) 
nan

>  <Synonyms>  (333) 
MG-516 | MG-91516 | MGCD-516 | MGCD516 | SITRAVATINIB

>  <Withdrawn>  (333) 
{'', 'Study NCT05419817 in unknown country was Withdrawn during PHASE2 because Slow Accrual'}

>  <Indications>  (333) 
nan

>  <Type>  (333) 
nan

>  <targets_id>  (333) 
P07949|Q16832|P04629|Q16620|Q16288

>  <Inchi>  (333) 
InChI=1S/C33H29F2N5O4S/c1-43-15-14-36-18-20-2-8-25(38-19-20)29-17-26-30(45-29)28(10-13-37-26)44-27-9-7-23(16-24(27)35)40-32(42)33(11-12-33)31(41)39-22-5-3-21(34)4-6-22/h2-10,13,16-17,19,36H,11-12,14-15,18H2,1H3,(H,39,41)(H,40,42)

>  <stdInchikey>  (333) 
WLAVZAAODLTUSW-UHFFFAOYSA-N

>  <csid>  (333) 
52083477

>  <Links>  (333) 
|http://www.chemspider.com/Chemical-Structure.52083477.html|https://www.ebi.ac.uk/chembldb/compound/inspect/CHEMBL3989926|https://pubchem.ncbi.nlm.nih.gov/compound/25212148|https://go.drugbank.com/drugs/DB15036|https://www.guidetopharmacology.org/GRAC/LigandDisplayForward?9920|https://zinc15.docking.org/substances/ZINC000164334830|https://precision.fda.gov/uniisearch/srs/unii/CWG62Q1VTB|https://www.bindingdb.org/bind/chemsearch/marvin/MolStructure.jsp?monomerid=50467574

>  <LinkName>  (333) 
|ChemSpider|ChEMBL|PubChem|DrugBank|Guide to Pharmacology|ZINC|FDA SRS|BindingDB

>  <lig_pdb_ID>  (333) 


>  <pdb_IDs>  (333) 


>  <indicationDB>  (333) 


>  <uniprotId>  (333) 


>  <indicationG2P>  (333) 
None

>  <MW>  (333) 
629.2

>  <HBA>  (333) 
8

>  <HBD>  (333) 
3

>  <NRB>  (333) 
12

>  <TPSA>  (333) 
114.5

>  <LogP>  (333) 
6.5

>  <RoF>  (333) 
2

>  <Melting point>  (333) 
nan

>  <Targets>  (333) 
RET; DDR2; NTRK1; NTRK2; NTRK3

>  <Kinase families>  (333) 
Tyr

>  <FDA_approved>  (333) 


$$$$
Sunvozertinib
     RDKit          2D

 41 44  0  0  0  0  0  0  0  0999 V2000
    6.4653   -5.5027    0.0000 C   0  0  0  0  0  0  0  0  0  0  0  0
    6.5699   -4.0064    0.0000 C   0  0  0  0  0  0  0  0  0  0  0  0
    5.3263   -3.1676    0.0000 C   0  0  0  0  0  0  0  0  0  0  0  0
    3.9781   -3.8252    0.0000 O   0  0  0  0  0  0  0  0  0  0  0  0
    5.4309   -1.6713    0.0000 N   0  0  0  0  0  0  0  0  0  0  0  0
    4.1873   -0.8325    0.0000 C   0  0  0  0  0  0  0  0  0  0  0  0
    2.8392   -1.4901    0.0000 C   0  0  0  0  0  0  0  0  0  0  0  0
    1.5956   -0.6513    0.0000 C   0  0  0  0  0  0  0  0  0  0  0  0
    0.2474   -1.3089    0.0000 N   0  0  0  0  0  0  0  0  0  0  0  0
   -0.9962   -0.4701    0.0000 C   0  0  0  0  0  0  0  0  0  0  0  0
   -0.8916    1.0262    0.0000 N   0  0  0  0  0  0  0  0  0  0  0  0
   -2.1351    1.8650    0.0000 C   0  0  0  0  0  0  0  0  0  0  0  0
   -3.4833    1.2074    0.0000 C   0  0  0  0  0  0  0  0  0  0  0  0
   -3.5879   -0.2889    0.0000 C   0  0  0  0  0  0  0  0  0  0  0  0
   -4.9361   -0.9465    0.0000 N   0  0  0  0  0  0  0  0  0  0  0  0
   -6.1797   -0.1077    0.0000 C   0  0  0  0  0  0  0  0  0  0  0  0
   -6.0751    1.3886    0.0000 C   0  0  0  0  0  0  0  0  0  0  0  0
   -7.3186    2.2274    0.0000 C   0  0  0  0  0  0  0  0  0  0  0  0
   -7.2140    3.7237    0.0000 Cl  0  0  0  0  0  0  0  0  0  0  0  0
   -8.6668    1.5698    0.0000 C   0  0  0  0  0  0  0  0  0  0  0  0
   -9.9104    2.4086    0.0000 F   0  0  0  0  0  0  0  0  0  0  0  0
   -8.7714    0.0734    0.0000 C   0  0  0  0  0  0  0  0  0  0  0  0
   -7.5278   -0.7653    0.0000 C   0  0  0  0  0  0  0  0  0  0  0  0
   -7.6325   -2.2617    0.0000 C   0  0  0  0  0  0  0  0  0  0  0  0
   -6.1361   -2.3663    0.0000 C   0  0  0  0  0  0  0  0  0  0  0  0
   -9.1288   -2.1571    0.0000 C   0  0  0  0  0  0  0  0  0  0  0  0
   -7.7371   -3.7580    0.0000 O   0  0  0  0  0  0  0  0  0  0  0  0
   -2.3443   -1.1277    0.0000 N   0  0  0  0  0  0  0  0  0  0  0  0
    1.7002    0.8450    0.0000 C   0  0  0  0  0  0  0  0  0  0  0  0
    0.4566    1.6838    0.0000 O   0  0  0  0  0  0  0  0  0  0  0  0
    0.5612    3.1801    0.0000 C   0  0  0  0  0  0  0  0  0  0  0  0
    3.0484    1.5026    0.0000 C   0  0  0  0  0  0  0  0  0  0  0  0
    4.2919    0.6638    0.0000 C   0  0  0  0  0  0  0  0  0  0  0  0
    5.6401    1.3214    0.0000 N   0  0  0  0  0  0  0  0  0  0  0  0
    5.9006    2.7986    0.0000 C   0  0  0  0  0  0  0  0  0  0  0  0
    7.3860    3.0074    0.0000 C   0  0  0  0  0  0  0  0  0  0  0  0
    8.0436    1.6592    0.0000 C   0  0  0  0  0  0  0  0  0  0  0  0
    9.5208    1.3988    0.0000 N   0  0  0  0  0  0  0  0  0  0  0  0
   10.0338   -0.0107    0.0000 C   0  0  0  0  0  0  0  0  0  0  0  0
   10.4849    2.5479    0.0000 C   0  0  0  0  0  0  0  0  0  0  0  0
    6.9646    0.6172    0.0000 C   0  0  0  0  0  0  0  0  0  0  0  0
  1  2  2  0
  2  3  1  0
  3  4  2  0
  3  5  1  0
  5  6  1  0
  6  7  2  0
  7  8  1  0
  8  9  1  0
  9 10  1  0
 10 11  2  0
 11 12  1  0
 12 13  2  0
 13 14  1  0
 14 15  1  0
 15 16  1  0
 16 17  2  0
 17 18  1  0
 18 19  1  0
 18 20  2  0
 20 21  1  0
 20 22  1  0
 22 23  2  0
 23 24  1  0
 24 25  1  0
 24 26  1  0
 24 27  1  0
 14 28  2  0
  8 29  2  0
 29 30  1  0
 30 31  1  0
 29 32  1  0
 32 33  2  0
 33 34  1  0
 34 35  1  0
 35 36  1  0
 36 37  1  0
 37 38  1  1
 38 39  1  0
 38 40  1  0
 37 41  1  0
 33  6  1  0
 41 34  1  0
 28 10  1  0
 23 16  1  0
M  END
>  <BrandName>  (334) 


>  <Applicants>  (334) 
('Dizal Pharmaceuticals ',)

>  <CHEMBL_ID>  (334) 
CHEMBL5314564

>  <Canonical_Smiles>  (334) 
C=CC(=O)Nc1cc(Nc2nccc(Nc3cc(Cl)c(F)cc3C(C)(C)O)n2)c(OC)cc1N1CC[C@@H](N(C)C)C1

>  <Chirality>  (334) 
Unknown

>  <First_Approval>  (334) 
nan

>  <Phase>  (334) 
3.0

>  <SC_Patent>  (334) 
nan

>  <Synonyms>  (334) 
122507 | A-1801 | A1801 | ASYM-122507 | DZ'0586 | DZ-0586 | DZ00000586 | DZ0586 | DZD-9008 | DZD9008 | SUNVOZERTINIB

>  <Withdrawn>  (334) 
{''}

>  <Indications>  (334) 
nan

>  <Type>  (334) 
nan

>  <targets_id>  (334) 
nan

>  <Inchi>  (334) 
InChI=1S/C29H35ClFN7O3/c1-7-27(39)34-22-14-23(25(41-6)15-24(22)38-11-9-17(16-38)37(4)5)35-28-32-10-8-26(36-28)33-21-13-19(30)20(31)12-18(21)29(2,3)40/h7-8,10,12-15,17,40H,1,9,11,16H2,2-6H3,(H,34,39)(H2,32,33,35,36)/t17-/m1/s1

>  <stdInchikey>  (334) 
BTMKEDDEMKKSEF-QGZVFWFLSA-N

>  <csid>  (334) 
115009350

>  <Links>  (334) 
|http://www.chemspider.com/Chemical-Structure.115009350.html|https://www.ebi.ac.uk/chembldb/compound/inspect/CHEMBL5314564|https://pubchem.ncbi.nlm.nih.gov/compound/139377809|https://precision.fda.gov/uniisearch/srs/unii/L1Q2K5JYO8

>  <LinkName>  (334) 
|ChemSpider|ChEMBL|PubChem|FDA SRS

>  <lig_pdb_ID>  (334) 


>  <pdb_IDs>  (334) 


>  <indicationDB>  (334) 


>  <uniprotId>  (334) 


>  <indicationG2P>  (334) 


>  <MW>  (334) 
583.2

>  <HBA>  (334) 
9

>  <HBD>  (334) 
4

>  <NRB>  (334) 
10

>  <TPSA>  (334) 
114.9

>  <LogP>  (334) 
5.3

>  <RoF>  (334) 
2

>  <Melting point>  (334) 
nan

>  <Targets>  (334) 
nan

>  <Kinase families>  (334) 


>  <FDA_approved>  (334) 


$$$$
Olverembatinib
     RDKit          2D

 39 43  0  0  0  0  0  0  0  0999 V2000
   -5.4224    4.0478    0.0000 C   0  0  0  0  0  0  0  0  0  0  0  0
   -3.9670    3.6846    0.0000 C   0  0  0  0  0  0  0  0  0  0  0  0
   -2.9248    4.7633    0.0000 C   0  0  0  0  0  0  0  0  0  0  0  0
   -1.4694    4.4001    0.0000 C   0  0  0  0  0  0  0  0  0  0  0  0
   -1.0563    2.9581    0.0000 C   0  0  0  0  0  0  0  0  0  0  0  0
    0.3991    2.5949    0.0000 C   0  0  0  0  0  0  0  0  0  0  0  0
    1.4413    3.6736    0.0000 O   0  0  0  0  0  0  0  0  0  0  0  0
    0.8122    1.1529    0.0000 N   0  0  0  0  0  0  0  0  0  0  0  0
    2.2675    0.7897    0.0000 C   0  0  0  0  0  0  0  0  0  0  0  0
    2.6807   -0.6523    0.0000 C   0  0  0  0  0  0  0  0  0  0  0  0
    4.1360   -1.0156    0.0000 C   0  0  0  0  0  0  0  0  0  0  0  0
    5.1783    0.0632    0.0000 C   0  0  0  0  0  0  0  0  0  0  0  0
    6.6336   -0.3000    0.0000 C   0  0  0  0  0  0  0  0  0  0  0  0
    7.0467   -1.7420    0.0000 N   0  0  0  0  0  0  0  0  0  0  0  0
    6.0045   -2.8208    0.0000 C   0  0  0  0  0  0  0  0  0  0  0  0
    6.4176   -4.2628    0.0000 C   0  0  0  0  0  0  0  0  0  0  0  0
    7.8730   -4.6260    0.0000 N   0  0  0  0  0  0  0  0  0  0  0  0
    8.2861   -6.0680    0.0000 C   0  0  0  0  0  0  0  0  0  0  0  0
    8.9152   -3.5472    0.0000 C   0  0  0  0  0  0  0  0  0  0  0  0
    8.5021   -2.1052    0.0000 C   0  0  0  0  0  0  0  0  0  0  0  0
    4.7651    1.5052    0.0000 C   0  0  0  0  0  0  0  0  0  0  0  0
    5.8074    2.5840    0.0000 C   0  0  0  0  0  0  0  0  0  0  0  0
    6.8496    3.6627    0.0000 F   0  0  0  0  0  0  0  0  0  0  0  0
    4.7286    3.6262    0.0000 F   0  0  0  0  0  0  0  0  0  0  0  0
    6.8862    1.5417    0.0000 F   0  0  0  0  0  0  0  0  0  0  0  0
    3.3098    1.8684    0.0000 C   0  0  0  0  0  0  0  0  0  0  0  0
   -2.0985    1.8793    0.0000 C   0  0  0  0  0  0  0  0  0  0  0  0
   -3.5539    2.2426    0.0000 C   0  0  0  0  0  0  0  0  0  0  0  0
   -4.5961    1.1638    0.0000 C   0  0  0  0  0  0  0  0  0  0  0  0
   -5.6384    0.0850    0.0000 C   0  0  0  0  0  0  0  0  0  0  0  0
   -6.6806   -0.9937    0.0000 C   0  0  0  0  0  0  0  0  0  0  0  0
   -6.2675   -2.4357    0.0000 C   0  0  0  0  0  0  0  0  0  0  0  0
   -7.3097   -3.5145    0.0000 N   0  0  0  0  0  0  0  0  0  0  0  0
   -8.7651   -3.1512    0.0000 C   0  0  0  0  0  0  0  0  0  0  0  0
  -10.0089   -3.9897    0.0000 N   0  0  0  0  0  0  0  0  0  0  0  0
  -11.1907   -3.0660    0.0000 N   0  0  0  0  0  0  0  0  0  0  0  0
  -10.6773   -1.6565    0.0000 C   0  0  0  0  0  0  0  0  0  0  0  0
   -9.1782   -1.7092    0.0000 C   0  0  0  0  0  0  0  0  0  0  0  0
   -8.1360   -0.6305    0.0000 C   0  0  0  0  0  0  0  0  0  0  0  0
  1  2  1  0
  2  3  2  0
  3  4  1  0
  4  5  2  0
  5  6  1  0
  6  7  2  0
  6  8  1  0
  8  9  1  0
  9 10  2  0
 10 11  1  0
 11 12  2  0
 12 13  1  0
 13 14  1  0
 14 15  1  0
 15 16  1  0
 16 17  1  0
 17 18  1  0
 17 19  1  0
 19 20  1  0
 12 21  1  0
 21 22  1  0
 22 23  1  0
 22 24  1  0
 22 25  1  0
 21 26  2  0
  5 27  1  0
 27 28  2  0
 28 29  1  0
 29 30  3  0
 30 31  1  0
 31 32  2  0
 32 33  1  0
 33 34  2  0
 34 35  1  0
 35 36  1  0
 36 37  2  0
 37 38  1  0
 38 39  2  0
 28  2  1  0
 39 31  1  0
 26  9  1  0
 38 34  1  0
 20 14  1  0
M  END
>  <BrandName>  (335) 


>  <Applicants>  (335) 
Guangzhou Institutes of Biomedicine and Health

>  <CHEMBL_ID>  (335) 
CHEMBL2316582

>  <Canonical_Smiles>  (335) 
Cc1ccc(C(=O)Nc2ccc(CN3CCN(C)CC3)c(C(F)(F)F)c2)cc1C#Cc1cnc2[nH]ncc2c1

>  <Chirality>  (335) 
Achiral Molecule

>  <First_Approval>  (335) 
nan

>  <Phase>  (335) 
3.0

>  <SC_Patent>  (335) 
nan

>  <Synonyms>  (335) 
D-824 | D-824 DIMESYLATE | GZD-824 | GZD-824 DIMESYLATE | HQP-1351 | HQP-1351 DIMESYLATE | HQP1351 | HQP1351 DIMESYLATE | OLVEREMBATINIB | OLVEREMBATINIB DIMESYLATE

>  <Withdrawn>  (335) 
{''}

>  <Indications>  (335) 
nan

>  <Type>  (335) 
nan

>  <targets_id>  (335) 
nan

>  <Inchi>  (335) 
InChI=1S/C29H27F3N6O/c1-19-3-5-22(14-21(19)6-4-20-13-24-17-34-36-27(24)33-16-20)28(39)35-25-8-7-23(26(15-25)29(30,31)32)18-38-11-9-37(2)10-12-38/h3,5,7-8,13-17H,9-12,18H2,1-2H3,(H,35,39)(H,33,34,36)

>  <stdInchikey>  (335) 
TZKBVRDEOITLRB-UHFFFAOYSA-N

>  <csid>  (335) 
29395146

>  <Links>  (335) 
|http://www.chemspider.com/Chemical-Structure.29395146.html|https://www.ebi.ac.uk/chembldb/compound/inspect/CHEMBL2316582|https://pubchem.ncbi.nlm.nih.gov/compound/51038269|https://go.drugbank.com/drugs/DB16185|https://www.rcsb.org/ligand/T3X|https://www.ebi.ac.uk/pdbe-srv/pdbechem/chemicalCompound/show/T3X|https://www.guidetopharmacology.org/GRAC/LigandDisplayForward?10630|https://zinc15.docking.org/substances/ZINC000095594040|https://precision.fda.gov/uniisearch/srs/unii/KV1M7Q3CBP|https://www.bindingdb.org/bind/chemsearch/marvin/MolStructure.jsp?monomerid=50425780

>  <LinkName>  (335) 
|ChemSpider|ChEMBL|PubChem|DrugBank|RCSB|PDBe|Guide to Pharmacology|ZINC|FDA SRS|BindingDB

>  <lig_pdb_ID>  (335) 
T3X

>  <pdb_IDs>  (335) 
8tyq 8tzb 8tze 8tzf 8u7l

>  <indicationDB>  (335) 


>  <uniprotId>  (335) 


>  <indicationG2P>  (335) 
None

>  <MW>  (335) 
532.2

>  <HBA>  (335) 
5

>  <HBD>  (335) 
2

>  <NRB>  (335) 
4

>  <TPSA>  (335) 
77.2

>  <LogP>  (335) 
4.7

>  <RoF>  (335) 
1

>  <Melting point>  (335) 
nan

>  <Targets>  (335) 
nan

>  <Kinase families>  (335) 


>  <FDA_approved>  (335) 


$$$$
Brivanib alaninate
     RDKit          2D

 32 35  0  0  0  0  0  0  0  0999 V2000
   -9.8881   -0.0343    0.0000 C   0  0  0  0  0  0  0  0  0  0  0  0
   -8.4562    0.4123    0.0000 C   0  0  0  0  0  0  0  0  0  0  0  0
   -7.2532   -0.4837    0.0000 C   0  0  0  0  0  0  0  0  0  0  0  0
   -6.0293    0.3835    0.0000 C   0  0  0  0  0  0  0  0  0  0  0  0
   -4.5659    0.0543    0.0000 C   0  0  0  0  0  0  0  0  0  0  0  0
   -4.1193   -1.3777    0.0000 F   0  0  0  0  0  0  0  0  0  0  0  0
   -3.5490    1.1571    0.0000 C   0  0  0  0  0  0  0  0  0  0  0  0
   -2.0856    0.8278    0.0000 O   0  0  0  0  0  0  0  0  0  0  0  0
   -1.6390   -0.6042    0.0000 C   0  0  0  0  0  0  0  0  0  0  0  0
   -2.6559   -1.7069    0.0000 N   0  0  0  0  0  0  0  0  0  0  0  0
   -2.2093   -3.1389    0.0000 C   0  0  0  0  0  0  0  0  0  0  0  0
   -0.7458   -3.4681    0.0000 N   0  0  0  0  0  0  0  0  0  0  0  0
    0.2710   -2.3654    0.0000 N   0  0  0  0  0  0  0  0  0  0  0  0
    1.7709   -2.3831    0.0000 C   0  0  0  0  0  0  0  0  0  0  0  0
    2.2513   -0.9622    0.0000 C   0  0  0  0  0  0  0  0  0  0  0  0
    3.6833   -0.5156    0.0000 O   0  0  0  0  0  0  0  0  0  0  0  0
    4.7860   -1.5324    0.0000 C   0  0  0  0  0  0  0  0  0  0  0  0
    6.2180   -1.0858    0.0000 C   0  0  0  0  0  0  0  0  0  0  0  0
    7.3207   -2.1026    0.0000 C   0  0  0  0  0  0  0  0  0  0  0  0
    6.5472    0.3776    0.0000 O   0  0  0  0  0  0  0  0  0  0  0  0
    7.9792    0.8242    0.0000 C   0  0  0  0  0  0  0  0  0  0  0  0
    9.0819   -0.1926    0.0000 O   0  0  0  0  0  0  0  0  0  0  0  0
    8.3084    2.2876    0.0000 C   0  0  0  0  0  0  0  0  0  0  0  0
    9.7404    2.7342    0.0000 C   0  0  0  0  0  0  0  0  0  0  0  0
    7.2057    3.3045    0.0000 N   0  0  0  0  0  0  0  0  0  0  0  0
    1.0483   -0.0662    0.0000 C   0  0  0  0  0  0  0  0  0  0  0  0
    1.0661    1.4337    0.0000 C   0  0  0  0  0  0  0  0  0  0  0  0
   -0.1756   -0.9334    0.0000 C   0  0  0  0  0  0  0  0  0  0  0  0
   -3.9956    2.5890    0.0000 C   0  0  0  0  0  0  0  0  0  0  0  0
   -5.4590    2.9183    0.0000 C   0  0  0  0  0  0  0  0  0  0  0  0
   -6.4759    1.8155    0.0000 C   0  0  0  0  0  0  0  0  0  0  0  0
   -7.9758    1.8333    0.0000 N   0  0  0  0  0  0  0  0  0  0  0  0
  1  2  1  0
  2  3  2  0
  3  4  1  0
  4  5  2  0
  5  6  1  0
  5  7  1  0
  7  8  1  0
  8  9  1  0
  9 10  2  0
 10 11  1  0
 11 12  2  0
 12 13  1  0
 13 14  1  0
 14 15  2  0
 15 16  1  0
 16 17  1  0
 17 18  1  0
 18 19  1  6
 18 20  1  0
 20 21  1  0
 21 22  2  0
 21 23  1  0
 23 24  1  1
 23 25  1  0
 15 26  1  0
 26 27  1  0
 26 28  2  0
  7 29  2  0
 29 30  1  0
 30 31  2  0
 31 32  1  0
 32  2  1  0
 31  4  1  0
 28  9  1  0
 28 13  1  0
M  END
>  <BrandName>  (336) 


>  <Applicants>  (336) 
Bristol Myers Squibb

>  <CHEMBL_ID>  (336) 
nan

>  <Canonical_Smiles>  (336) 
Cc1cc2c(F)c(Oc3ncnn4cc(OC[C@@H](C)OC(=O)[C@H](C)N)c(C)c34)ccc2[nH]1

>  <Chirality>  (336) 
nan

>  <First_Approval>  (336) 
nan

>  <Phase>  (336) 
3.0

>  <SC_Patent>  (336) 
nan

>  <Synonyms>  (336) 
ALANINATE DE BRIVANIB | ALANINATO DE BRIVANIB | BMS-582664 | BMS-582664-02 | BRIVANIB ALANINATE | BRIVANIB L-ALANINE ESTER

>  <Withdrawn>  (336) 
nan

>  <Indications>  (336) 
nan

>  <Type>  (336) 
nan

>  <targets_id>  (336) 
nan

>  <Inchi>  (336) 
InChI=1S/C22H24FN5O4/c1-11-7-15-16(27-11)5-6-17(19(15)23)32-21-20-13(3)18(8-28(20)26-10-25-21)30-9-12(2)31-22(29)14(4)24/h5-8,10,12,14,27H,9,24H2,1-4H3/t12-,14+/m1/s1

>  <stdInchikey>  (336) 
LTEJRLHKIYCEOX-OCCSQVGLSA-N

>  <csid>  (336) 
9330033

>  <Links>  (336) 
|http://www.chemspider.com/Chemical-Structure.9330033.html|https://www.ebi.ac.uk/chembldb/compound/inspect/CHEMBL270995|https://pubchem.ncbi.nlm.nih.gov/compound/11154925|https://go.drugbank.com/drugs/DB11865|https://www.guidetopharmacology.org/GRAC/LigandDisplayForward?8097|https://zinc15.docking.org/substances/ZINC000029134440|https://precision.fda.gov/uniisearch/srs/unii/U2Y5OFN795

>  <LinkName>  (336) 
|ChemSpider|ChEMBL|PubChem|DrugBank|Guide to Pharmacology|ZINC|FDA SRS

>  <lig_pdb_ID>  (336) 


>  <pdb_IDs>  (336) 


>  <indicationDB>  (336) 


>  <uniprotId>  (336) 


>  <indicationG2P>  (336) 
None

>  <MW>  (336) 
441.2

>  <HBA>  (336) 
8

>  <HBD>  (336) 
2

>  <NRB>  (336) 
7

>  <TPSA>  (336) 
116.8

>  <LogP>  (336) 
3.4

>  <RoF>  (336) 
0

>  <Melting point>  (336) 
nan

>  <Targets>  (336) 
nan

>  <Kinase families>  (336) 


>  <FDA_approved>  (336) 


$$$$
Lapatinib
     RDKit          2D

 40 44  0  0  0  0  0  0  0  0999 V2000
   -6.4375    7.6486    0.0000 C   0  0  0  0  0  0  0  0  0  0  0  0
   -6.0015    6.2134    0.0000 S   0  0  0  0  0  0  0  0  0  0  0  0
   -7.4367    5.7774    0.0000 O   0  0  0  0  0  0  0  0  0  0  0  0
   -4.5663    6.6494    0.0000 O   0  0  0  0  0  0  0  0  0  0  0  0
   -5.5655    4.7782    0.0000 C   0  0  0  0  0  0  0  0  0  0  0  0
   -6.5904    3.6830    0.0000 C   0  0  0  0  0  0  0  0  0  0  0  0
   -6.1544    2.2477    0.0000 N   0  0  0  0  0  0  0  0  0  0  0  0
   -7.1794    1.1525    0.0000 C   0  0  0  0  0  0  0  0  0  0  0  0
   -6.7434   -0.2827    0.0000 C   0  0  0  0  0  0  0  0  0  0  0  0
   -7.6482   -1.4791    0.0000 C   0  0  0  0  0  0  0  0  0  0  0  0
   -6.7901   -2.7093    0.0000 C   0  0  0  0  0  0  0  0  0  0  0  0
   -5.3548   -2.2733    0.0000 C   0  0  0  0  0  0  0  0  0  0  0  0
   -5.3260   -0.7736    0.0000 O   0  0  0  0  0  0  0  0  0  0  0  0
   -4.1585   -3.1782    0.0000 C   0  0  0  0  0  0  0  0  0  0  0  0
   -4.3439   -4.6667    0.0000 C   0  0  0  0  0  0  0  0  0  0  0  0
   -3.1476   -5.5715    0.0000 C   0  0  0  0  0  0  0  0  0  0  0  0
   -1.7658   -4.9879    0.0000 C   0  0  0  0  0  0  0  0  0  0  0  0
   -1.5803   -3.4994    0.0000 C   0  0  0  0  0  0  0  0  0  0  0  0
   -2.7767   -2.5945    0.0000 C   0  0  0  0  0  0  0  0  0  0  0  0
   -0.1985   -2.9158    0.0000 C   0  0  0  0  0  0  0  0  0  0  0  0
    0.9978   -3.8206    0.0000 N   0  0  0  0  0  0  0  0  0  0  0  0
    0.8123   -5.3091    0.0000 C   0  0  0  0  0  0  0  0  0  0  0  0
   -0.5695   -5.8927    0.0000 N   0  0  0  0  0  0  0  0  0  0  0  0
   -0.0131   -1.4273    0.0000 N   0  0  0  0  0  0  0  0  0  0  0  0
    1.3687   -0.8436    0.0000 C   0  0  0  0  0  0  0  0  0  0  0  0
    2.5650   -1.7485    0.0000 C   0  0  0  0  0  0  0  0  0  0  0  0
    3.9468   -1.1648    0.0000 C   0  0  0  0  0  0  0  0  0  0  0  0
    4.1323    0.3236    0.0000 C   0  0  0  0  0  0  0  0  0  0  0  0
    2.9360    1.2285    0.0000 C   0  0  0  0  0  0  0  0  0  0  0  0
    1.5542    0.6449    0.0000 C   0  0  0  0  0  0  0  0  0  0  0  0
    3.1214    2.7170    0.0000 Cl  0  0  0  0  0  0  0  0  0  0  0  0
    5.5141    0.9073    0.0000 O   0  0  0  0  0  0  0  0  0  0  0  0
    6.7104    0.0024    0.0000 C   0  0  0  0  0  0  0  0  0  0  0  0
    8.0922    0.5861    0.0000 C   0  0  0  0  0  0  0  0  0  0  0  0
    9.2886   -0.3188    0.0000 C   0  0  0  0  0  0  0  0  0  0  0  0
   10.6704    0.2648    0.0000 C   0  0  0  0  0  0  0  0  0  0  0  0
   10.8558    1.7533    0.0000 C   0  0  0  0  0  0  0  0  0  0  0  0
    9.6595    2.6582    0.0000 C   0  0  0  0  0  0  0  0  0  0  0  0
    8.2777    2.0746    0.0000 C   0  0  0  0  0  0  0  0  0  0  0  0
    9.8449    4.1467    0.0000 F   0  0  0  0  0  0  0  0  0  0  0  0
  1  2  1  0
  2  3  2  0
  2  4  2  0
  2  5  1  0
  5  6  1  0
  6  7  1  0
  7  8  1  0
  8  9  1  0
  9 10  2  0
 10 11  1  0
 11 12  2  0
 12 13  1  0
 12 14  1  0
 14 15  2  0
 15 16  1  0
 16 17  2  0
 17 18  1  0
 18 19  2  0
 18 20  1  0
 20 21  2  0
 21 22  1  0
 22 23  2  0
 20 24  1  0
 24 25  1  0
 25 26  2  0
 26 27  1  0
 27 28  2  0
 28 29  1  0
 29 30  2  0
 29 31  1  0
 28 32  1  0
 32 33  1  0
 33 34  1  0
 34 35  2  0
 35 36  1  0
 36 37  2  0
 37 38  1  0
 38 39  2  0
 38 40  1  0
 13  9  1  0
 19 14  1  0
 23 17  1  0
 30 25  1  0
 39 34  1  0
M  END
>  <BrandName>  (337) 
Tykerb;Tyverb

>  <Applicants>  (337) 
GlaxoSmithKline

>  <CHEMBL_ID>  (337) 
CHEMBL554

>  <Canonical_Smiles>  (337) 
CS(=O)(=O)CCNCc1ccc(o1)c2ccc3c(c2)c(ncn3)Nc4ccc(c(c4)Cl)OCc5cccc(c5)F

>  <Chirality>  (337) 
Achiral Molecule

>  <First_Approval>  (337) 
2007

>  <Phase>  (337) 
4.0

>  <SC_Patent>  (337) 
US-8821927-B2

>  <Synonyms>  (337) 
GSK-572016 | GW-2016 | GW-572016 | GW-572016X | GW572016 | LAPATINIB | TYVERB

>  <Withdrawn>  (337) 
{'', 'Study NCT01005641 in Italy was Withdrawn during PHASE2 because Study not started for administrative reasons', 'Study NCT01700010 in United States was Withdrawn during PHASE2 because Funding issues', 'Study NCT01205217 in Austria was Withdrawn during PHASE2 because Data presented at SABCS 2010 showing that dual blockade is superior to monotherapy', 'Study NCT00513253 in United States was Withdrawn during PHASE1 because It was determined not to be needed based on the clinical development plan of Tykerb', 'Study NCT01985893 in Germany was Withdrawn during PHASE2 because Due to missing patient recruitment, the financial support was stopped', 'Study NCT00682279 in United States was Withdrawn during PHASE1 because Cancelled before enrollment'}

>  <Indications>  (337) 
Indicated in combination with capecitabine for the treatment of patients with advanced or metastatic breast cancer whose tumors overexpress the human epidermal receptor type 2 (HER2) protein and who have received prior therapy including an anthracycline, a taxane, and trastuzuma.

>  <Type>  (337) 
1.5

>  <targets_id>  (337) 
P00533|P04626

>  <Inchi>  (337) 
InChI=1S/C29H26ClFN4O4S/c1-40(36,37)12-11-32-16-23-7-10-27(39-23)20-5-8-26-24(14-20)29(34-18-33-26)35-22-6-9-28(25(30)15-22)38-17-19-3-2-4-21(31)13-19/h2-10,13-15,18,32H,11-12,16-17H2,1H3,(H,33,34,35)

>  <stdInchikey>  (337) 
BCFGMOOMADDAQU-UHFFFAOYSA-N

>  <csid>  (337) 
181006

>  <Links>  (337) 
|http://www.chemspider.com/Chemical-Structure.181006.html|https://www.ebi.ac.uk/chembldb/compound/inspect/CHEMBL554|https://pubchem.ncbi.nlm.nih.gov/compound/208908|https://go.drugbank.com/drugs/DB01259|https://www.rcsb.org/ligand/FMM|https://www.ebi.ac.uk/pdbe-srv/pdbechem/chemicalCompound/show/FMM|https://www.guidetopharmacology.org/GRAC/LigandDisplayForward?5692|https://zinc15.docking.org/substances/ZINC000001550477|https://precision.fda.gov/uniisearch/srs/unii/0VUA21238F|https://www.bindingdb.org/bind/chemsearch/marvin/MolStructure.jsp?monomerid=5445

>  <LinkName>  (337) 
|ChemSpider|ChEMBL|PubChem|DrugBank|RCSB|PDBe|Guide to Pharmacology|ZINC|FDA SRS|BindingDB

>  <lig_pdb_ID>  (337) 
FMM

>  <pdb_IDs>  (337) 
1xkk 3bbt 8zbu

>  <indicationDB>  (337) 


>  <uniprotId>  (337) 


>  <indicationG2P>  (337) 
None

>  <MW>  (337) 
580.1

>  <HBA>  (337) 
8

>  <HBD>  (337) 
2

>  <NRB>  (337) 
11

>  <TPSA>  (337) 
106.4

>  <LogP>  (337) 
6.1

>  <RoF>  (337) 
2

>  <Melting point>  (337) 
nan

>  <Targets>  (337) 
EGFR; ERBB2

>  <Kinase families>  (337) 
Tyr

>  <FDA_approved>  (337) 
Y

$$$$
Infigratinib
     RDKit          2D

 38 41  0  0  0  0  0  0  0  0999 V2000
  -10.7959   -3.9268    0.0000 C   0  0  0  0  0  0  0  0  0  0  0  0
   -9.3145   -4.1622    0.0000 C   0  0  0  0  0  0  0  0  0  0  0  0
   -8.3700   -2.9969    0.0000 N   0  0  0  0  0  0  0  0  0  0  0  0
   -8.9069   -1.5963    0.0000 C   0  0  0  0  0  0  0  0  0  0  0  0
   -7.9623   -0.4310    0.0000 C   0  0  0  0  0  0  0  0  0  0  0  0
   -6.4809   -0.6664    0.0000 N   0  0  0  0  0  0  0  0  0  0  0  0
   -5.9440   -2.0670    0.0000 C   0  0  0  0  0  0  0  0  0  0  0  0
   -6.8886   -3.2323    0.0000 C   0  0  0  0  0  0  0  0  0  0  0  0
   -5.5364    0.4989    0.0000 C   0  0  0  0  0  0  0  0  0  0  0  0
   -4.0549    0.2635    0.0000 C   0  0  0  0  0  0  0  0  0  0  0  0
   -3.1104    1.4288    0.0000 C   0  0  0  0  0  0  0  0  0  0  0  0
   -3.6473    2.8294    0.0000 C   0  0  0  0  0  0  0  0  0  0  0  0
   -5.1287    3.0647    0.0000 C   0  0  0  0  0  0  0  0  0  0  0  0
   -6.0732    1.8995    0.0000 C   0  0  0  0  0  0  0  0  0  0  0  0
   -2.7027    3.9946    0.0000 N   0  0  0  0  0  0  0  0  0  0  0  0
   -1.2213    3.7593    0.0000 C   0  0  0  0  0  0  0  0  0  0  0  0
   -0.6844    2.3587    0.0000 C   0  0  0  0  0  0  0  0  0  0  0  0
    0.7970    2.1233    0.0000 C   0  0  0  0  0  0  0  0  0  0  0  0
    1.7415    3.2885    0.0000 N   0  0  0  0  0  0  0  0  0  0  0  0
    1.2046    4.6892    0.0000 C   0  0  0  0  0  0  0  0  0  0  0  0
   -0.2768    4.9245    0.0000 N   0  0  0  0  0  0  0  0  0  0  0  0
    1.3339    0.7227    0.0000 N   0  0  0  0  0  0  0  0  0  0  0  0
    0.3893   -0.4426    0.0000 C   0  0  0  0  0  0  0  0  0  0  0  0
    2.8153    0.4873    0.0000 C   0  0  0  0  0  0  0  0  0  0  0  0
    3.7598    1.6526    0.0000 O   0  0  0  0  0  0  0  0  0  0  0  0
    3.3522   -0.9133    0.0000 N   0  0  0  0  0  0  0  0  0  0  0  0
    4.8336   -1.1487    0.0000 C   0  0  0  0  0  0  0  0  0  0  0  0
    5.3705   -2.5493    0.0000 C   0  0  0  0  0  0  0  0  0  0  0  0
    6.8519   -2.7847    0.0000 C   0  0  0  0  0  0  0  0  0  0  0  0
    7.7964   -1.6194    0.0000 C   0  0  0  0  0  0  0  0  0  0  0  0
    7.2595   -0.2188    0.0000 C   0  0  0  0  0  0  0  0  0  0  0  0
    5.7781    0.0166    0.0000 C   0  0  0  0  0  0  0  0  0  0  0  0
    5.2412    1.4172    0.0000 Cl  0  0  0  0  0  0  0  0  0  0  0  0
    8.2041    0.9465    0.0000 O   0  0  0  0  0  0  0  0  0  0  0  0
    9.6855    0.7111    0.0000 C   0  0  0  0  0  0  0  0  0  0  0  0
    7.3888   -4.1853    0.0000 O   0  0  0  0  0  0  0  0  0  0  0  0
    8.8702   -4.4207    0.0000 C   0  0  0  0  0  0  0  0  0  0  0  0
    4.4259   -3.7146    0.0000 Cl  0  0  0  0  0  0  0  0  0  0  0  0
  1  2  1  0
  2  3  1  0
  3  4  1  0
  4  5  1  0
  5  6  1  0
  6  7  1  0
  7  8  1  0
  6  9  1  0
  9 10  2  0
 10 11  1  0
 11 12  2  0
 12 13  1  0
 13 14  2  0
 12 15  1  0
 15 16  1  0
 16 17  2  0
 17 18  1  0
 18 19  2  0
 19 20  1  0
 20 21  2  0
 18 22  1  0
 22 23  1  0
 22 24  1  0
 24 25  2  0
 24 26  1  0
 26 27  1  0
 27 28  2  0
 28 29  1  0
 29 30  2  0
 30 31  1  0
 31 32  2  0
 32 33  1  0
 31 34  1  0
 34 35  1  0
 29 36  1  0
 36 37  1  0
 28 38  1  0
  8  3  1  0
 14  9  1  0
 21 16  1  0
 32 27  1  0
M  END
>  <BrandName>  (338) 


>  <Applicants>  (338) 
Novartis

>  <CHEMBL_ID>  (338) 
CHEMBL1852688

>  <Canonical_Smiles>  (338) 
CCN1CCN(CC1)c2ccc(cc2)Nc3cc(ncn3)N(C)C(=O)Nc4c(c(cc(c4Cl)OC)OC)Cl

>  <Chirality>  (338) 
Achiral Molecule

>  <First_Approval>  (338) 
2021

>  <Phase>  (338) 
4.0

>  <SC_Patent>  (338) 
US-8552002-B2

>  <Synonyms>  (338) 
BGJ-398 | BGJ398 | INFIGRATINIB | MVP-BGJ398 | NVP-BGJ398

>  <Withdrawn>  (338) 
{''}

>  <Indications>  (338) 
On May 2021, FDA approved infigratinib to treat adults with cholangiocarcinoma whose disease meets certain criteria

>  <Type>  (338) 
1

>  <targets_id>  (338) 
P11362|P21802|P22607

>  <Inchi>  (338) 
InChI=1S/C26H31Cl2N7O3/c1-5-34-10-12-35(13-11-34)18-8-6-17(7-9-18)31-21-15-22(30-16-29-21)33(2)26(36)32-25-23(27)19(37-3)14-20(38-4)24(25)28/h6-9,14-16H,5,10-13H2,1-4H3,(H,32,36)(H,29,30,31)

>  <stdInchikey>  (338) 
QADPYRIHXKWUSV-UHFFFAOYSA-N

>  <csid>  (338) 
26333103

>  <Links>  (338) 
|http://www.chemspider.com/Chemical-Structure.26333103.html|https://www.ebi.ac.uk/chembldb/compound/inspect/CHEMBL1852688|https://pubchem.ncbi.nlm.nih.gov/compound/53235510|https://go.drugbank.com/drugs/DB11886|https://www.rcsb.org/ligand/07J|https://www.ebi.ac.uk/pdbe-srv/pdbechem/chemicalCompound/show/07J|https://www.guidetopharmacology.org/GRAC/LigandDisplayForward?7877|https://zinc15.docking.org/substances/ZINC000072105034|https://precision.fda.gov/uniisearch/srs/unii/A4055ME1VK|https://www.bindingdb.org/bind/chemsearch/marvin/MolStructure.jsp?monomerid=50355393

>  <LinkName>  (338) 
|ChemSpider|ChEMBL|PubChem|DrugBank|RCSB|PDBe|Guide to Pharmacology|ZINC|FDA SRS|BindingDB

>  <lig_pdb_ID>  (338) 
07J

>  <pdb_IDs>  (338) 
3tt0

>  <indicationDB>  (338) 


>  <uniprotId>  (338) 


>  <indicationG2P>  (338) 
None

>  <MW>  (338) 
559.2

>  <HBA>  (338) 
8

>  <HBD>  (338) 
2

>  <NRB>  (338) 
8

>  <TPSA>  (338) 
95.1

>  <LogP>  (338) 
5.4

>  <RoF>  (338) 
2

>  <Melting point>  (338) 
nan

>  <Targets>  (338) 
FGFR1; FGFR2; FGFR3

>  <Kinase families>  (338) 
Tyr

>  <FDA_approved>  (338) 
Y

$$$$
Imatinib
     RDKit          2D

 37 41  0  0  0  0  0  0  0  0999 V2000
   -7.7450    1.8017    0.0000 C   0  0  0  0  0  0  0  0  0  0  0  0
   -6.2611    2.0209    0.0000 C   0  0  0  0  0  0  0  0  0  0  0  0
   -5.7090    3.4156    0.0000 C   0  0  0  0  0  0  0  0  0  0  0  0
   -4.2251    3.6347    0.0000 C   0  0  0  0  0  0  0  0  0  0  0  0
   -3.2933    2.4592    0.0000 C   0  0  0  0  0  0  0  0  0  0  0  0
   -3.8455    1.0645    0.0000 C   0  0  0  0  0  0  0  0  0  0  0  0
   -5.3294    0.8454    0.0000 C   0  0  0  0  0  0  0  0  0  0  0  0
   -5.8815   -0.5493    0.0000 N   0  0  0  0  0  0  0  0  0  0  0  0
   -4.9497   -1.7248    0.0000 C   0  0  0  0  0  0  0  0  0  0  0  0
   -5.5019   -3.1195    0.0000 N   0  0  0  0  0  0  0  0  0  0  0  0
   -4.5701   -4.2950    0.0000 C   0  0  0  0  0  0  0  0  0  0  0  0
   -3.0862   -4.0758    0.0000 C   0  0  0  0  0  0  0  0  0  0  0  0
   -2.5341   -2.6811    0.0000 C   0  0  0  0  0  0  0  0  0  0  0  0
   -3.4658   -1.5056    0.0000 N   0  0  0  0  0  0  0  0  0  0  0  0
   -1.0502   -2.4620    0.0000 C   0  0  0  0  0  0  0  0  0  0  0  0
   -0.1184   -3.6375    0.0000 C   0  0  0  0  0  0  0  0  0  0  0  0
    1.3655   -3.4183    0.0000 C   0  0  0  0  0  0  0  0  0  0  0  0
    1.9176   -2.0236    0.0000 C   0  0  0  0  0  0  0  0  0  0  0  0
    0.9859   -0.8481    0.0000 N   0  0  0  0  0  0  0  0  0  0  0  0
   -0.4980   -1.0673    0.0000 C   0  0  0  0  0  0  0  0  0  0  0  0
   -1.8094    2.6784    0.0000 N   0  0  0  0  0  0  0  0  0  0  0  0
   -0.8777    1.5029    0.0000 C   0  0  0  0  0  0  0  0  0  0  0  0
   -1.4298    0.1082    0.0000 O   0  0  0  0  0  0  0  0  0  0  0  0
    0.6062    1.7221    0.0000 C   0  0  0  0  0  0  0  0  0  0  0  0
    1.5380    0.5466    0.0000 C   0  0  0  0  0  0  0  0  0  0  0  0
    3.0219    0.7658    0.0000 C   0  0  0  0  0  0  0  0  0  0  0  0
    3.5740    2.1604    0.0000 C   0  0  0  0  0  0  0  0  0  0  0  0
    2.6423    3.3360    0.0000 C   0  0  0  0  0  0  0  0  0  0  0  0
    1.1584    3.1168    0.0000 C   0  0  0  0  0  0  0  0  0  0  0  0
    5.0579    2.3796    0.0000 C   0  0  0  0  0  0  0  0  0  0  0  0
    5.9897    1.2041    0.0000 N   0  0  0  0  0  0  0  0  0  0  0  0
    5.4376   -0.1906    0.0000 C   0  0  0  0  0  0  0  0  0  0  0  0
    6.3693   -1.3661    0.0000 C   0  0  0  0  0  0  0  0  0  0  0  0
    7.8532   -1.1469    0.0000 N   0  0  0  0  0  0  0  0  0  0  0  0
    8.4054    0.2478    0.0000 C   0  0  0  0  0  0  0  0  0  0  0  0
    7.4736    1.4233    0.0000 C   0  0  0  0  0  0  0  0  0  0  0  0
    8.7850   -2.3224    0.0000 C   0  0  0  0  0  0  0  0  0  0  0  0
  1  2  1  0
  2  3  2  0
  3  4  1  0
  4  5  2  0
  5  6  1  0
  6  7  2  0
  7  8  1  0
  8  9  1  0
  9 10  2  0
 10 11  1  0
 11 12  2  0
 12 13  1  0
 13 14  2  0
 13 15  1  0
 15 16  2  0
 16 17  1  0
 17 18  2  0
 18 19  1  0
 19 20  2  0
  5 21  1  0
 21 22  1  0
 22 23  2  0
 22 24  1  0
 24 25  2  0
 25 26  1  0
 26 27  2  0
 27 28  1  0
 28 29  2  0
 27 30  1  0
 30 31  1  0
 31 32  1  0
 32 33  1  0
 33 34  1  0
 34 35  1  0
 35 36  1  0
 34 37  1  0
  7  2  1  0
 14  9  1  0
 20 15  1  0
 29 24  1  0
 36 31  1  0
M  END
>  <BrandName>  (339) 
Gleevec

>  <Applicants>  (339) 
Novartis

>  <CHEMBL_ID>  (339) 
CHEMBL941

>  <Canonical_Smiles>  (339) 
Cc1ccc(cc1Nc2nccc(n2)c3cccnc3)NC(=O)c4ccc(cc4)CN5CCN(CC5)C

>  <Chirality>  (339) 
Achiral Molecule

>  <First_Approval>  (339) 
2001

>  <Phase>  (339) 
4.0

>  <SC_Patent>  (339) 
nan

>  <Synonyms>  (339) 
GLAMOX | GLEEVEC | IMATINIB | NSC-743414 | NSC-759854 | STI-571

>  <Withdrawn>  (339) 
{'', 'Study NCT00594555 in United States was Withdrawn during PHASE2 because Principal Investigator resigned position with the University of Cincinnati, closing study at this site will reopen study in new position', 'Study NCT01188889 in United States was Withdrawn during PHASE1 because Unable to obtain sufficient funding', 'Study NCT01011998 in United States was Withdrawn during PHASE2 because Withdrawn due to lack of accrual per Center DSMP, with PI concurrence', 'Study NCT04953052 in India was Withdrawn during PHASE2 because Number of moderate to severe ARDS patients hospitalised due to COVID19 diminishingly small Not expected to recruit required minimum number of patients', 'Study NCT06219733 in Korea, Republic of was Withdrawn during PHASE2 because Changing trial strategy', 'Study NCT02268435 in unknown country was Withdrawn during PHASE1 because Dovitinib Production stopped', 'Study NCT02812693 in unknown country was Withdrawn during PHASE1 because poor accrual', 'Study NCT03688568 in United States was Withdrawn during PHASE2 because Enrollment not feasible', 'Study NCT00403156 in United States was Withdrawn during PHASE1 because Lack of recruitment', 'Study NCT02538926 in United States was Withdrawn during PHASE2 because Drugs unavailable', 'Study NCT00324077 in United States was Withdrawn during PHASE1 because Insufficient Enrollment', 'Study NCT02129166 in unknown country was Withdrawn during PHASE1 because PI resigned'}

>  <Indications>  (339) 
For the treatment of Philadelphia chromosome positive chronic myeloid leukemia (Ph+ CML), Ph+ acute lymphoblastic leukaemia, myelodysplastic/myeloproliferative diseases, aggressive systemic mastocytosis, hypereosinophilic syndrome and/or chronic eosinophilic leukemia (CEL), dermatofibrosarcoma protuberans, and malignant gastrointestinal stromal tumors (GIST).

>  <Type>  (339) 
2

>  <targets_id>  (339) 
P10721|P07949|P04629|P07333|P16234|Q08345|P00519|P09619

>  <Inchi>  (339) 
InChI=1S/C29H31N7O/c1-21-5-10-25(18-27(21)34-29-31-13-11-26(33-29)24-4-3-12-30-19-24)32-28(37)23-8-6-22(7-9-23)20-36-16-14-35(2)15-17-36/h3-13,18-19H,14-17,20H2,1-2H3,(H,32,37)(H,31,33,34)

>  <stdInchikey>  (339) 
KTUFNOKKBVMGRW-UHFFFAOYSA-N

>  <csid>  (339) 
5101

>  <Links>  (339) 
|http://www.chemspider.com/Chemical-Structure.5101.html|https://www.ebi.ac.uk/chembldb/compound/inspect/CHEMBL941|https://pubchem.ncbi.nlm.nih.gov/compound/5291|https://go.drugbank.com/drugs/DB00619|https://www.rcsb.org/ligand/STI|https://www.ebi.ac.uk/pdbe-srv/pdbechem/chemicalCompound/show/STI|https://www.guidetopharmacology.org/GRAC/LigandDisplayForward?5687|https://zinc15.docking.org/substances/ZINC000019632618|https://precision.fda.gov/uniisearch/srs/unii/BKJ8M8G5HI|https://www.bindingdb.org/bind/chemsearch/marvin/MolStructure.jsp?monomerid=13530

>  <LinkName>  (339) 
|ChemSpider|ChEMBL|PubChem|DrugBank|RCSB|PDBe|Guide to Pharmacology|ZINC|FDA SRS|BindingDB

>  <lig_pdb_ID>  (339) 
STI

>  <pdb_IDs>  (339) 
1iep 1opj 1t46 1xbb 2hyy 2oiq 2pl0 3fw1 3gvu 3hec 3k5v 3ms9 3mss 3oez 3pyy 4bkj 4csv 4r7i 5mqt 6hd4 6hd6 6jol 6ktn 6npe 6npu 6npv 6vxh 7n9g

>  <indicationDB>  (339) 


>  <uniprotId>  (339) 


>  <indicationG2P>  (339) 
None

>  <MW>  (339) 
493.3

>  <HBA>  (339) 
7

>  <HBD>  (339) 
2

>  <NRB>  (339) 
7

>  <TPSA>  (339) 
86.3

>  <LogP>  (339) 
4.6

>  <RoF>  (339) 
0

>  <Melting point>  (339) 
226 C (mesylate salt)

>  <Targets>  (339) 
KIT; RET; NTRK1; CSF1R; PDGFRA; DDR1; ABL1; PDGFRB

>  <Kinase families>  (339) 
Tyr

>  <FDA_approved>  (339) 
Y

$$$$
Tirabrutinib
     RDKit          2D

 34 38  0  0  0  0  0  0  0  0999 V2000
    9.3898   -1.5495    0.0000 C   0  0  0  0  0  0  0  0  0  0  0  0
    8.5598   -0.3000    0.0000 C   0  0  0  0  0  0  0  0  0  0  0  0
    7.7298    0.9495    0.0000 C   0  0  0  0  0  0  0  0  0  0  0  0
    6.8999    2.1989    0.0000 C   0  0  0  0  0  0  0  0  0  0  0  0
    7.5670    3.5424    0.0000 O   0  0  0  0  0  0  0  0  0  0  0  0
    5.4028    2.1049    0.0000 N   0  0  0  0  0  0  0  0  0  0  0  0
    4.4468    3.2608    0.0000 C   0  0  0  0  0  0  0  0  0  0  0  0
    3.0521    2.7087    0.0000 C   0  0  0  0  0  0  0  0  0  0  0  0
    3.1461    1.2117    0.0000 C   0  0  0  0  0  0  0  0  0  0  0  0
    4.5990    0.8385    0.0000 C   0  0  0  0  0  0  0  0  0  0  0  0
    1.9903    0.2557    0.0000 N   0  0  0  0  0  0  0  0  0  0  0  0
    2.0843   -1.2414    0.0000 C   0  0  0  0  0  0  0  0  0  0  0  0
    0.6896   -1.7934    0.0000 C   0  0  0  0  0  0  0  0  0  0  0  0
    0.4703   -3.2773    0.0000 C   0  0  0  0  0  0  0  0  0  0  0  0
    1.6457   -4.2091    0.0000 N   0  0  0  0  0  0  0  0  0  0  0  0
    3.0405   -3.6571    0.0000 C   0  0  0  0  0  0  0  0  0  0  0  0
    3.2597   -2.1732    0.0000 N   0  0  0  0  0  0  0  0  0  0  0  0
   -0.9244   -3.8293    0.0000 N   0  0  0  0  0  0  0  0  0  0  0  0
   -0.2665   -0.6375    0.0000 N   0  0  0  0  0  0  0  0  0  0  0  0
    0.5374    0.6289    0.0000 C   0  0  0  0  0  0  0  0  0  0  0  0
   -0.0146    2.0236    0.0000 O   0  0  0  0  0  0  0  0  0  0  0  0
   -1.7635   -0.7316    0.0000 C   0  0  0  0  0  0  0  0  0  0  0  0
   -2.5935    0.5179    0.0000 C   0  0  0  0  0  0  0  0  0  0  0  0
   -4.0905    0.4239    0.0000 C   0  0  0  0  0  0  0  0  0  0  0  0
   -4.7576   -0.9196    0.0000 C   0  0  0  0  0  0  0  0  0  0  0  0
   -3.9276   -2.1691    0.0000 C   0  0  0  0  0  0  0  0  0  0  0  0
   -2.4306   -2.0751    0.0000 C   0  0  0  0  0  0  0  0  0  0  0  0
   -6.2546   -1.0137    0.0000 O   0  0  0  0  0  0  0  0  0  0  0  0
   -7.0846    0.2358    0.0000 C   0  0  0  0  0  0  0  0  0  0  0  0
   -6.4175    1.5793    0.0000 C   0  0  0  0  0  0  0  0  0  0  0  0
   -7.2475    2.8288    0.0000 C   0  0  0  0  0  0  0  0  0  0  0  0
   -8.7445    2.7347    0.0000 C   0  0  0  0  0  0  0  0  0  0  0  0
   -9.4116    1.3912    0.0000 C   0  0  0  0  0  0  0  0  0  0  0  0
   -8.5817    0.1418    0.0000 C   0  0  0  0  0  0  0  0  0  0  0  0
  1  2  1  0
  2  3  3  0
  3  4  1  0
  4  5  2  0
  4  6  1  0
  6  7  1  0
  7  8  1  0
  8  9  1  0
  9 10  1  0
  9 11  1  0
 11 12  1  0
 12 13  1  0
 13 14  2  0
 14 15  1  0
 15 16  2  0
 16 17  1  0
 14 18  1  0
 13 19  1  0
 19 20  1  0
 20 21  2  0
 19 22  1  0
 22 23  2  0
 23 24  1  0
 24 25  2  0
 25 26  1  0
 26 27  2  0
 25 28  1  0
 28 29  1  0
 29 30  2  0
 30 31  1  0
 31 32  2  0
 32 33  1  0
 33 34  2  0
 10  6  1  0
 20 11  1  0
 17 12  2  0
 27 22  1  0
 34 29  1  0
M  END
>  <BrandName>  (340) 
Velexbru

>  <Applicants>  (340) 
Ono Pharmaceutical

>  <CHEMBL_ID>  (340) 
CHEMBL4071161

>  <Canonical_Smiles>  (340) 
CC#CC(=O)N1CCC(C1)n2c3c(c(ncn3)N)n(c2=O)c4ccc(cc4)Oc5ccccc5

>  <Chirality>  (340) 
Single Stereoisomer

>  <First_Approval>  (340) 
nan

>  <Phase>  (340) 
4.0

>  <SC_Patent>  (340) 
nan

>  <Synonyms>  (340) 
GS-4059||ONO-4059(FREE BASE)|ONO-4059

>  <Withdrawn>  (340) 
nan

>  <Indications>  (340) 
nan

>  <Type>  (340) 
nan

>  <targets_id>  (340) 
nan

>  <Inchi>  (340) 
InChI=1S/C25H22N6O3/c1-2-6-21(32)29-14-13-18(15-29)31-24-22(23(26)27-16-28-24)30(25(31)33)17-9-11-20(12-10-17)34-19-7-4-3-5-8-19/h3-5,7-12,16,18H,13-15H2,1H3,(H2,26,27,28)/t18-/m1/s1

>  <stdInchikey>  (340) 
SEJLPXCPMNSRAM-UHFFFAOYSA-N

>  <csid>  (340) 
34979967

>  <Links>  (340) 
|http://www.chemspider.com/Chemical-Structure.34979967.html|https://pubchem.ncbi.nlm.nih.gov/compound/54755435

>  <LinkName>  (340) 
|ChemSpider|PubChem

>  <lig_pdb_ID>  (340) 


>  <pdb_IDs>  (340) 


>  <indicationDB>  (340) 


>  <uniprotId>  (340) 


>  <indicationG2P>  (340) 


>  <MW>  (340) 
454.2

>  <HBA>  (340) 
8

>  <HBD>  (340) 
1

>  <NRB>  (340) 
4

>  <TPSA>  (340) 
108.3

>  <LogP>  (340) 
2.8

>  <RoF>  (340) 
0

>  <Melting point>  (340) 
nan

>  <Targets>  (340) 
nan

>  <Kinase families>  (340) 


>  <FDA_approved>  (340) 
Y

$$$$
Lorlatinib
     RDKit          2D

 30 33  0  0  0  0  0  0  0  0999 V2000
    3.4946   -2.8833    0.0000 C   0  0  0  0  0  0  0  0  0  0  0  0
    2.3844   -1.8746    0.0000 C   0  0  0  0  0  0  0  0  0  0  0  0
    3.0713   -0.5411    0.0000 C   0  0  0  0  0  0  0  0  0  0  0  0
    4.4048   -1.2281    0.0000 C   0  0  0  0  0  0  0  0  0  0  0  0
    5.6664   -0.4167    0.0000 C   0  0  0  0  0  0  0  0  0  0  0  0
    5.5946    1.0816    0.0000 C   0  0  0  0  0  0  0  0  0  0  0  0
    4.2611    1.7685    0.0000 C   0  0  0  0  0  0  0  0  0  0  0  0
    2.9995    0.9571    0.0000 C   0  0  0  0  0  0  0  0  0  0  0  0
    2.1881    2.2188    0.0000 C   0  0  0  0  0  0  0  0  0  0  0  0
    3.1967    3.3290    0.0000 O   0  0  0  0  0  0  0  0  0  0  0  0
    0.8546    2.9057    0.0000 N   0  0  0  0  0  0  0  0  0  0  0  0
   -0.6436    2.8338    0.0000 C   0  0  0  0  0  0  0  0  0  0  0  0
   -1.9053    2.0225    0.0000 C   0  0  0  0  0  0  0  0  0  0  0  0
   -2.5922    0.6890    0.0000 C   0  0  0  0  0  0  0  0  0  0  0  0
   -4.0727    0.9302    0.0000 C   0  0  0  0  0  0  0  0  0  0  0  0
   -4.3007    2.4128    0.0000 N   0  0  0  0  0  0  0  0  0  0  0  0
   -2.9612    3.0878    0.0000 N   0  0  0  0  0  0  0  0  0  0  0  0
   -5.6342    3.0997    0.0000 C   0  0  0  0  0  0  0  0  0  0  0  0
   -5.1380   -0.1257    0.0000 C   0  0  0  0  0  0  0  0  0  0  0  0
   -6.2034   -1.1816    0.0000 N   0  0  0  0  0  0  0  0  0  0  0  0
   -2.5203   -0.8093    0.0000 C   0  0  0  0  0  0  0  0  0  0  0  0
   -1.7090   -2.0709    0.0000 C   0  0  0  0  0  0  0  0  0  0  0  0
   -0.3755   -2.7578    0.0000 C   0  0  0  0  0  0  0  0  0  0  0  0
   -1.6060   -3.6665    0.0000 C   0  0  0  0  0  0  0  0  0  0  0  0
   -3.0718   -3.3481    0.0000 N   0  0  0  0  0  0  0  0  0  0  0  0
   -3.5290   -1.9195    0.0000 C   0  0  0  0  0  0  0  0  0  0  0  0
   -1.1488   -5.0952    0.0000 N   0  0  0  0  0  0  0  0  0  0  0  0
    1.1228   -2.6860    0.0000 O   0  0  0  0  0  0  0  0  0  0  0  0
    1.1730    4.3715    0.0000 C   0  0  0  0  0  0  0  0  0  0  0  0
    6.9999   -1.1036    0.0000 F   0  0  0  0  0  0  0  0  0  0  0  0
  2  1  1  1
  2  3  1  0
  3  4  2  0
  4  5  1  0
  5  6  2  0
  6  7  1  0
  7  8  2  0
  8  9  1  0
  9 10  2  0
  9 11  1  0
 11 12  1  0
 12 13  1  0
 13 14  1  0
 14 15  2  0
 15 16  1  0
 16 17  1  0
 16 18  1  0
 15 19  1  0
 19 20  3  0
 14 21  1  0
 21 22  1  0
 22 23  2  0
 23 24  1  0
 24 25  2  0
 25 26  1  0
 24 27  1  0
 23 28  1  0
 11 29  1  0
  5 30  1  0
 28  2  1  0
  8  3  1  0
 17 13  2  0
 26 21  2  0
M  END
>  <BrandName>  (341) 
Lorbrena;Lorviqua

>  <Applicants>  (341) 
Pfizer

>  <CHEMBL_ID>  (341) 
CHEMBL3286830

>  <Canonical_Smiles>  (341) 
C[C@@H]1c2cc(ccc2C(=O)N(Cc3c(c(n(n3)C)C#N)-c4cc(c(nc4)N)O1)C)F

>  <Chirality>  (341) 
Single Stereoisomer

>  <First_Approval>  (341) 
2018

>  <Phase>  (341) 
4.0

>  <SC_Patent>  (341) 
US-8680111-B2

>  <Synonyms>  (341) 
LORBRENA | LORLATINIB | LORVIQUA | PF-06463922

>  <Withdrawn>  (341) 
{'', 'Study NCT05948462 in United States was Withdrawn during PHASE2 because Study withdrawn by pharmaceutical funding partner'}

>  <Indications>  (341) 
On november 2, 2018, the FDA approved lorlatinib to treat patients with anaplastic lymphoma kinase (ALK)-positive metastatic non-small cell lung cancer

>  <Type>  (341) 
1

>  <targets_id>  (341) 
Q9UM73|P08922

>  <Inchi>  (341) 
InChI=1S/C21H19FN6O2/c1-11-15-7-13(22)4-5-14(15)21(29)27(2)10-16-19(17(8-23)28(3)26-16)12-6-18(30-11)20(24)25-9-12/h4-7,9,11H,10H2,1-3H3,(H2,24,25)/t11-/m1/s1

>  <stdInchikey>  (341) 
IIXWYSCJSQVBQM-LLVKDONJSA-N

>  <csid>  (341) 
32813339

>  <Links>  (341) 
|http://www.chemspider.com/Chemical-Structure.32813339.html|https://www.ebi.ac.uk/chembldb/compound/inspect/CHEMBL3286830|https://pubchem.ncbi.nlm.nih.gov/compound/71731823|https://go.drugbank.com/drugs/DB12130|https://www.rcsb.org/ligand/5P8|https://www.ebi.ac.uk/pdbe-srv/pdbechem/chemicalCompound/show/5P8|https://www.guidetopharmacology.org/GRAC/LigandDisplayForward?7476|https://zinc15.docking.org/substances/ZINC000098208524|https://precision.fda.gov/uniisearch/srs/unii/OSP71S83EU|https://www.bindingdb.org/bind/chemsearch/marvin/MolStructure.jsp?monomerid=50018830

>  <LinkName>  (341) 
|ChemSpider|ChEMBL|PubChem|DrugBank|RCSB|PDBe|Guide to Pharmacology|ZINC|FDA SRS|BindingDB

>  <lig_pdb_ID>  (341) 
5P8

>  <pdb_IDs>  (341) 
4cli 4clj 4uxl 5a9u 5aa8 5aa9

>  <indicationDB>  (341) 


>  <uniprotId>  (341) 


>  <indicationG2P>  (341) 
None

>  <MW>  (341) 
406.2

>  <HBA>  (341) 
7

>  <HBD>  (341) 
1

>  <NRB>  (341) 
0

>  <TPSA>  (341) 
110.1

>  <LogP>  (341) 
2.8

>  <RoF>  (341) 
0

>  <Melting point>  (341) 
nan

>  <Targets>  (341) 
ALK; ROS1

>  <Kinase families>  (341) 
Tyr

>  <FDA_approved>  (341) 
Y

$$$$
Tivozanib
     RDKit          2D

 32 35  0  0  0  0  0  0  0  0999 V2000
  -11.2699    1.0431    0.0000 C   0  0  0  0  0  0  0  0  0  0  0  0
   -9.7776    0.8912    0.0000 C   0  0  0  0  0  0  0  0  0  0  0  0
   -9.0234   -0.4054    0.0000 C   0  0  0  0  0  0  0  0  0  0  0  0
   -7.5572   -0.0887    0.0000 C   0  0  0  0  0  0  0  0  0  0  0  0
   -7.4053    1.4035    0.0000 N   0  0  0  0  0  0  0  0  0  0  0  0
   -8.7776    2.0092    0.0000 O   0  0  0  0  0  0  0  0  0  0  0  0
   -6.4392   -1.0888    0.0000 N   0  0  0  0  0  0  0  0  0  0  0  0
   -5.0142   -0.6206    0.0000 C   0  0  0  0  0  0  0  0  0  0  0  0
   -4.7071    0.8476    0.0000 O   0  0  0  0  0  0  0  0  0  0  0  0
   -3.8962   -1.6207    0.0000 N   0  0  0  0  0  0  0  0  0  0  0  0
   -2.4711   -1.1525    0.0000 C   0  0  0  0  0  0  0  0  0  0  0  0
   -1.3531   -2.1526    0.0000 C   0  0  0  0  0  0  0  0  0  0  0  0
    0.0719   -1.6844    0.0000 C   0  0  0  0  0  0  0  0  0  0  0  0
    0.3790   -0.2162    0.0000 C   0  0  0  0  0  0  0  0  0  0  0  0
   -0.7390    0.7839    0.0000 C   0  0  0  0  0  0  0  0  0  0  0  0
   -2.1640    0.3157    0.0000 C   0  0  0  0  0  0  0  0  0  0  0  0
   -3.2820    1.3158    0.0000 Cl  0  0  0  0  0  0  0  0  0  0  0  0
    1.8041    0.2520    0.0000 O   0  0  0  0  0  0  0  0  0  0  0  0
    2.9221   -0.7480    0.0000 C   0  0  0  0  0  0  0  0  0  0  0  0
    2.6150   -2.2163    0.0000 C   0  0  0  0  0  0  0  0  0  0  0  0
    3.7330   -3.2163    0.0000 C   0  0  0  0  0  0  0  0  0  0  0  0
    5.1580   -2.7482    0.0000 N   0  0  0  0  0  0  0  0  0  0  0  0
    5.4651   -1.2799    0.0000 C   0  0  0  0  0  0  0  0  0  0  0  0
    4.3471   -0.2799    0.0000 C   0  0  0  0  0  0  0  0  0  0  0  0
    4.6542    1.1884    0.0000 C   0  0  0  0  0  0  0  0  0  0  0  0
    6.0793    1.6565    0.0000 C   0  0  0  0  0  0  0  0  0  0  0  0
    7.1973    0.6565    0.0000 C   0  0  0  0  0  0  0  0  0  0  0  0
    6.8902   -0.8118    0.0000 C   0  0  0  0  0  0  0  0  0  0  0  0
    8.6223    1.1246    0.0000 O   0  0  0  0  0  0  0  0  0  0  0  0
    9.7403    0.1246    0.0000 C   0  0  0  0  0  0  0  0  0  0  0  0
    6.3864    3.1248    0.0000 O   0  0  0  0  0  0  0  0  0  0  0  0
    7.8114    3.5929    0.0000 C   0  0  0  0  0  0  0  0  0  0  0  0
  1  2  1  0
  2  3  2  0
  3  4  1  0
  4  5  2  0
  5  6  1  0
  4  7  1  0
  7  8  1  0
  8  9  2  0
  8 10  1  0
 10 11  1  0
 11 12  2  0
 12 13  1  0
 13 14  2  0
 14 15  1  0
 15 16  2  0
 16 17  1  0
 14 18  1  0
 18 19  1  0
 19 20  2  0
 20 21  1  0
 21 22  2  0
 22 23  1  0
 23 24  2  0
 24 25  1  0
 25 26  2  0
 26 27  1  0
 27 28  2  0
 27 29  1  0
 29 30  1  0
 26 31  1  0
 31 32  1  0
  6  2  1  0
 16 11  1  0
 24 19  1  0
 28 23  1  0
M  END
>  <BrandName>  (342) 
Fotivda

>  <Applicants>  (342) 
Aveo Pharmaceuticals

>  <CHEMBL_ID>  (342) 
CHEMBL1289494

>  <Canonical_Smiles>  (342) 
Cc1cc(no1)NC(=O)Nc2ccc(cc2Cl)Oc3ccnc4c3cc(c(c4)OC)OC

>  <Chirality>  (342) 
Achiral Molecule

>  <First_Approval>  (342) 
2021

>  <Phase>  (342) 
4.0

>  <SC_Patent>  (342) 
US-6821987-B2

>  <Synonyms>  (342) 
ASP-4130 | AV-951 | FOTIVDA | KIL-8951 | KIL8951 | KRN-951 | TIVOZANIB

>  <Withdrawn>  (342) 
{'', 'Study NCT01834183 in United States was Withdrawn during PHASE2 because Sponsor Aveo has withdrawn support for this trial', 'Study NCT01728181 in unknown country was Withdrawn during PHASE1 because Stopped before approval due to ineffective drug'}

>  <Indications>  (342) 
On March 2021, FDA approved tivozanib to treat patients with renal cell carcinoma

>  <Type>  (342) 
2

>  <targets_id>  (342) 
P17948|P35968|P35916

>  <Inchi>  (342) 
InChI=1S/C22H19ClN4O5/c1-12-8-21(27-32-12)26-22(28)25-16-5-4-13(9-15(16)23)31-18-6-7-24-17-11-20(30-3)19(29-2)10-14(17)18/h4-11H,1-3H3,(H2,25,26,27,28)

>  <stdInchikey>  (342) 
SPMVMDHWKHCIDT-UHFFFAOYSA-N

>  <csid>  (342) 
8087481

>  <Links>  (342) 
|http://www.chemspider.com/Chemical-Structure.8087481.html|https://www.ebi.ac.uk/chembldb/compound/inspect/CHEMBL1289494|https://pubchem.ncbi.nlm.nih.gov/compound/9911830|https://go.drugbank.com/drugs/DB11800|https://www.rcsb.org/ligand/AV9|https://www.ebi.ac.uk/pdbe-srv/pdbechem/chemicalCompound/show/AV9|https://www.guidetopharmacology.org/GRAC/LigandDisplayForward?6058|https://zinc15.docking.org/substances/ZINC000001489430|https://precision.fda.gov/uniisearch/srs/unii/172030934T|https://www.bindingdb.org/bind/chemsearch/marvin/MolStructure.jsp?monomerid=50331095

>  <LinkName>  (342) 
|ChemSpider|ChEMBL|PubChem|DrugBank|RCSB|PDBe|Guide to Pharmacology|ZINC|FDA SRS|BindingDB

>  <lig_pdb_ID>  (342) 
AV9

>  <pdb_IDs>  (342) 
4ase 8bem

>  <indicationDB>  (342) 


>  <uniprotId>  (342) 


>  <indicationG2P>  (342) 
None

>  <MW>  (342) 
454.1

>  <HBA>  (342) 
7

>  <HBD>  (342) 
2

>  <NRB>  (342) 
6

>  <TPSA>  (342) 
107.7

>  <LogP>  (342) 
5.6

>  <RoF>  (342) 
1

>  <Melting point>  (342) 
220-233

>  <Targets>  (342) 
FLT1; KDR; FLT4

>  <Kinase families>  (342) 
Tyr

>  <FDA_approved>  (342) 
Y

$$$$
Tepotinib
     RDKit          2D

 37 41  0  0  0  0  0  0  0  0999 V2000
   12.8705   -2.6323    0.0000 C   0  0  0  0  0  0  0  0  0  0  0  0
   11.4297   -2.2149    0.0000 N   0  0  0  0  0  0  0  0  0  0  0  0
   10.3478   -3.2539    0.0000 C   0  0  0  0  0  0  0  0  0  0  0  0
    8.9071   -2.8365    0.0000 C   0  0  0  0  0  0  0  0  0  0  0  0
    8.5482   -1.3800    0.0000 C   0  0  0  0  0  0  0  0  0  0  0  0
    9.6301   -0.3410    0.0000 C   0  0  0  0  0  0  0  0  0  0  0  0
   11.0708   -0.7584    0.0000 C   0  0  0  0  0  0  0  0  0  0  0  0
    7.1075   -0.9626    0.0000 C   0  0  0  0  0  0  0  0  0  0  0  0
    6.7486    0.4938    0.0000 O   0  0  0  0  0  0  0  0  0  0  0  0
    5.3078    0.9112    0.0000 C   0  0  0  0  0  0  0  0  0  0  0  0
    4.9490    2.3677    0.0000 C   0  0  0  0  0  0  0  0  0  0  0  0
    3.5082    2.7851    0.0000 N   0  0  0  0  0  0  0  0  0  0  0  0
    2.4263    1.7461    0.0000 C   0  0  0  0  0  0  0  0  0  0  0  0
    2.7852    0.2896    0.0000 N   0  0  0  0  0  0  0  0  0  0  0  0
    4.2260   -0.1278    0.0000 C   0  0  0  0  0  0  0  0  0  0  0  0
    0.9856    2.1635    0.0000 C   0  0  0  0  0  0  0  0  0  0  0  0
    0.6267    3.6199    0.0000 C   0  0  0  0  0  0  0  0  0  0  0  0
   -0.8140    4.0374    0.0000 C   0  0  0  0  0  0  0  0  0  0  0  0
   -1.8959    2.9983    0.0000 C   0  0  0  0  0  0  0  0  0  0  0  0
   -1.5370    1.5419    0.0000 C   0  0  0  0  0  0  0  0  0  0  0  0
   -0.0963    1.1245    0.0000 C   0  0  0  0  0  0  0  0  0  0  0  0
   -2.6189    0.5029    0.0000 C   0  0  0  0  0  0  0  0  0  0  0  0
   -4.0597    0.9203    0.0000 N   0  0  0  0  0  0  0  0  0  0  0  0
   -4.4185    2.3767    0.0000 C   0  0  0  0  0  0  0  0  0  0  0  0
   -3.3367    3.4158    0.0000 O   0  0  0  0  0  0  0  0  0  0  0  0
   -5.8593    2.7942    0.0000 C   0  0  0  0  0  0  0  0  0  0  0  0
   -6.9412    1.7551    0.0000 C   0  0  0  0  0  0  0  0  0  0  0  0
   -6.5823    0.2987    0.0000 C   0  0  0  0  0  0  0  0  0  0  0  0
   -5.1415   -0.1187    0.0000 N   0  0  0  0  0  0  0  0  0  0  0  0
   -7.6642   -0.7403    0.0000 C   0  0  0  0  0  0  0  0  0  0  0  0
   -9.1049   -0.3229    0.0000 C   0  0  0  0  0  0  0  0  0  0  0  0
  -10.1868   -1.3619    0.0000 C   0  0  0  0  0  0  0  0  0  0  0  0
   -9.8279   -2.8183    0.0000 C   0  0  0  0  0  0  0  0  0  0  0  0
   -8.3871   -3.2358    0.0000 C   0  0  0  0  0  0  0  0  0  0  0  0
   -7.3053   -2.1967    0.0000 C   0  0  0  0  0  0  0  0  0  0  0  0
   -8.0283   -4.6922    0.0000 C   0  0  0  0  0  0  0  0  0  0  0  0
   -7.6694   -6.1486    0.0000 N   0  0  0  0  0  0  0  0  0  0  0  0
  1  2  1  0
  2  3  1  0
  3  4  1  0
  4  5  1  0
  5  6  1  0
  6  7  1  0
  5  8  1  0
  8  9  1  0
  9 10  1  0
 10 11  2  0
 11 12  1  0
 12 13  2  0
 13 14  1  0
 14 15  2  0
 13 16  1  0
 16 17  2  0
 17 18  1  0
 18 19  2  0
 19 20  1  0
 20 21  2  0
 20 22  1  0
 22 23  1  0
 23 24  1  0
 24 25  2  0
 24 26  1  0
 26 27  2  0
 27 28  1  0
 28 29  2  0
 28 30  1  0
 30 31  2  0
 31 32  1  0
 32 33  2  0
 33 34  1  0
 34 35  2  0
 34 36  1  0
 36 37  3  0
  7  2  1  0
 15 10  1  0
 21 16  1  0
 29 23  1  0
 35 30  1  0
M  END
>  <BrandName>  (343) 


>  <Applicants>  (343) 
Merck

>  <CHEMBL_ID>  (343) 
CHEMBL3402762

>  <Canonical_Smiles>  (343) 
CN1CCC(CC1)COc2cnc(nc2)c3cccc(c3)Cn4c(=O)ccc(n4)c5cccc(c5)C#N

>  <Chirality>  (343) 
Achiral Molecule

>  <First_Approval>  (343) 
2021

>  <Phase>  (343) 
4.0

>  <SC_Patent>  (343) 
US-8329692-B2

>  <Synonyms>  (343) 
EMD 1214063 | EMD-1214063 | EMD1214063 | MSC-2156119 | MSC-2156119J | MSC2156119 | TEPOTINIB

>  <Withdrawn>  (343) 
{'', 'Study NCT05120960 in unknown country was Withdrawn during PHASE1 because 0 participant accrual'}

>  <Indications>  (343) 
On February 2021, FDA approved tepotinib to treat non-small cell lung cancer

>  <Type>  (343) 
1

>  <targets_id>  (343) 
P08581

>  <Inchi>  (343) 
InChI=1S/C29H28N6O2/c1-34-12-10-21(11-13-34)20-37-26-17-31-29(32-18-26)25-7-3-5-23(15-25)19-35-28(36)9-8-27(33-35)24-6-2-4-22(14-24)16-30/h2-9,14-15,17-18,21H,10-13,19-20H2,1H3

>  <stdInchikey>  (343) 
AHYMHWXQRWRBKT-UHFFFAOYSA-N

>  <csid>  (343) 
28637823

>  <Links>  (343) 
|http://www.chemspider.com/Chemical-Structure.28637823.html|https://www.ebi.ac.uk/chembldb/compound/inspect/CHEMBL3402762|https://pubchem.ncbi.nlm.nih.gov/compound/25171648|https://go.drugbank.com/drugs/DB15133|https://www.rcsb.org/ligand/3E8|https://www.ebi.ac.uk/pdbe-srv/pdbechem/chemicalCompound/show/3E8|https://www.guidetopharmacology.org/GRAC/LigandDisplayForward?8293|https://zinc15.docking.org/substances/ZINC000043202335|https://precision.fda.gov/uniisearch/srs/unii/1IJV77EI07|https://www.bindingdb.org/bind/chemsearch/marvin/MolStructure.jsp?monomerid=50065457

>  <LinkName>  (343) 
|ChemSpider|ChEMBL|PubChem|DrugBank|RCSB|PDBe|Guide to Pharmacology|ZINC|FDA SRS|BindingDB

>  <lig_pdb_ID>  (343) 
3E8

>  <pdb_IDs>  (343) 
4r1v 8au3 8au5 8aw1

>  <indicationDB>  (343) 


>  <uniprotId>  (343) 


>  <indicationG2P>  (343) 
None

>  <MW>  (343) 
492.2

>  <HBA>  (343) 
8

>  <HBD>  (343) 
0

>  <NRB>  (343) 
7

>  <TPSA>  (343) 
96.9

>  <LogP>  (343) 
4.0

>  <RoF>  (343) 
0

>  <Melting point>  (343) 
nan

>  <Targets>  (343) 
MET

>  <Kinase families>  (343) 
Tyr

>  <FDA_approved>  (343) 
Y

$$$$
Icotinib
     RDKit          2D

 29 32  0  0  0  0  0  0  0  0999 V2000
   -8.3777   -1.7918    0.0000 C   0  0  0  0  0  0  0  0  0  0  0  0
   -7.3938   -0.6596    0.0000 C   0  0  0  0  0  0  0  0  0  0  0  0
   -6.4099    0.4726    0.0000 C   0  0  0  0  0  0  0  0  0  0  0  0
   -6.8984    1.8908    0.0000 C   0  0  0  0  0  0  0  0  0  0  0  0
   -5.9145    3.0230    0.0000 C   0  0  0  0  0  0  0  0  0  0  0  0
   -4.4420    2.7370    0.0000 C   0  0  0  0  0  0  0  0  0  0  0  0
   -3.9534    1.3188    0.0000 C   0  0  0  0  0  0  0  0  0  0  0  0
   -4.9374    0.1866    0.0000 C   0  0  0  0  0  0  0  0  0  0  0  0
   -2.4810    1.0328    0.0000 N   0  0  0  0  0  0  0  0  0  0  0  0
   -1.9924   -0.3855    0.0000 C   0  0  0  0  0  0  0  0  0  0  0  0
   -0.5199   -0.6715    0.0000 C   0  0  0  0  0  0  0  0  0  0  0  0
    0.4640    0.4607    0.0000 C   0  0  0  0  0  0  0  0  0  0  0  0
    1.9365    0.1747    0.0000 C   0  0  0  0  0  0  0  0  0  0  0  0
    2.4250   -1.2435    0.0000 C   0  0  0  0  0  0  0  0  0  0  0  0
    1.4411   -2.3757    0.0000 C   0  0  0  0  0  0  0  0  0  0  0  0
   -0.0314   -2.0897    0.0000 C   0  0  0  0  0  0  0  0  0  0  0  0
   -1.0153   -3.2219    0.0000 N   0  0  0  0  0  0  0  0  0  0  0  0
   -2.4878   -2.9359    0.0000 C   0  0  0  0  0  0  0  0  0  0  0  0
   -2.9763   -1.5177    0.0000 N   0  0  0  0  0  0  0  0  0  0  0  0
    3.5572   -2.2274    0.0000 O   0  0  0  0  0  0  0  0  0  0  0  0
    5.0297   -2.5134    0.0000 C   0  0  0  0  0  0  0  0  0  0  0  0
    6.4479   -2.0249    0.0000 C   0  0  0  0  0  0  0  0  0  0  0  0
    7.4319   -0.8927    0.0000 O   0  0  0  0  0  0  0  0  0  0  0  0
    7.7179    0.5798    0.0000 C   0  0  0  0  0  0  0  0  0  0  0  0
    7.2293    1.9980    0.0000 C   0  0  0  0  0  0  0  0  0  0  0  0
    6.0971    2.9819    0.0000 O   0  0  0  0  0  0  0  0  0  0  0  0
    4.6246    3.2679    0.0000 C   0  0  0  0  0  0  0  0  0  0  0  0
    3.2064    2.7794    0.0000 C   0  0  0  0  0  0  0  0  0  0  0  0
    2.2225    1.6472    0.0000 O   0  0  0  0  0  0  0  0  0  0  0  0
  1  2  3  0
  2  3  1  0
  3  4  2  0
  4  5  1  0
  5  6  2  0
  6  7  1  0
  7  8  2  0
  7  9  1  0
  9 10  1  0
 10 11  1  0
 11 12  2  0
 12 13  1  0
 13 14  2  0
 14 15  1  0
 15 16  2  0
 16 17  1  0
 17 18  2  0
 18 19  1  0
 14 20  1  0
 20 21  1  0
 21 22  1  0
 22 23  1  0
 23 24  1  0
 24 25  1  0
 25 26  1  0
 26 27  1  0
 27 28  1  0
 28 29  1  0
  8  3  1  0
 19 10  2  0
 16 11  1  0
 29 13  1  0
M  END
>  <BrandName>  (344) 


>  <Applicants>  (344) 
Zhejiang Beta Pharma

>  <CHEMBL_ID>  (344) 
CHEMBL2087361

>  <Canonical_Smiles>  (344) 
C#Cc1cccc(c1)Nc2c3cc4c(cc3ncn2)OCCOCCOCCO4

>  <Chirality>  (344) 
Achiral Molecule

>  <First_Approval>  (344) 
2011

>  <Phase>  (344) 
4.0

>  <SC_Patent>  (344) 
nan

>  <Synonyms>  (344) 
BPI-2009 | BPI-2009H | ICOTINIB

>  <Withdrawn>  (344) 
{''}

>  <Indications>  (344) 
Icotinib hydrochloride is a novel epidermal growth factor receptor (EGFR)tyrosine kinase inhibitor, exhibits encouraging efficacy and tolerability in patients with advanced non-small-cell lung cancer (NSCLC) who failed previous chemotherapy.

>  <Type>  (344) 
nan

>  <targets_id>  (344) 
P00533

>  <Inchi>  (344) 
InChI=1S/C22H21N3O4/c1-2-16-4-3-5-17(12-16)25-22-18-13-20-21(14-19(18)23-15-24-22)29-11-9-27-7-6-26-8-10-28-20/h1,3-5,12-15H,6-11H2,(H,23,24,25)

>  <stdInchikey>  (344) 
QQLKULDARVNMAL-UHFFFAOYSA-N

>  <csid>  (344) 
10762174

>  <Links>  (344) 
|http://www.chemspider.com/Chemical-Structure.10762174.html|https://www.ebi.ac.uk/chembldb/compound/inspect/CHEMBL2087361|https://pubchem.ncbi.nlm.nih.gov/compound/22024915|https://go.drugbank.com/drugs/DB11737|https://www.guidetopharmacology.org/GRAC/LigandDisplayForward?7641|https://zinc15.docking.org/substances/ZINC000043207566|https://precision.fda.gov/uniisearch/srs/unii/9G6U5L461Q|https://www.bindingdb.org/bind/chemsearch/marvin/MolStructure.jsp?monomerid=50391089

>  <LinkName>  (344) 
|ChemSpider|ChEMBL|PubChem|DrugBank|Guide to Pharmacology|ZINC|FDA SRS|BindingDB

>  <lig_pdb_ID>  (344) 


>  <pdb_IDs>  (344) 


>  <indicationDB>  (344) 


>  <uniprotId>  (344) 


>  <indicationG2P>  (344) 
None

>  <MW>  (344) 
391.2

>  <HBA>  (344) 
7

>  <HBD>  (344) 
1

>  <NRB>  (344) 
2

>  <TPSA>  (344) 
74.7

>  <LogP>  (344) 
3.2

>  <RoF>  (344) 
0

>  <Melting point>  (344) 
nan

>  <Targets>  (344) 
EGFR

>  <Kinase families>  (344) 
Tyr

>  <FDA_approved>  (344) 
N

$$$$
Binimetinib
     RDKit          2D

 27 29  0  0  0  0  0  0  0  0999 V2000
    5.7549   -2.6046    0.0000 C   0  0  0  0  0  0  0  0  0  0  0  0
    5.0068   -1.3044    0.0000 N   0  0  0  0  0  0  0  0  0  0  0  0
    5.6189    0.0650    0.0000 C   0  0  0  0  0  0  0  0  0  0  0  0
    4.5056    1.0703    0.0000 N   0  0  0  0  0  0  0  0  0  0  0  0
    3.2055    0.3222    0.0000 C   0  0  0  0  0  0  0  0  0  0  0  0
    3.5152   -1.1455    0.0000 C   0  0  0  0  0  0  0  0  0  0  0  0
    2.3991   -2.1476    0.0000 C   0  0  0  0  0  0  0  0  0  0  0  0
    0.9731   -1.6820    0.0000 C   0  0  0  0  0  0  0  0  0  0  0  0
    0.6634   -0.2143    0.0000 C   0  0  0  0  0  0  0  0  0  0  0  0
    1.7796    0.7878    0.0000 C   0  0  0  0  0  0  0  0  0  0  0  0
    1.4698    2.2555    0.0000 F   0  0  0  0  0  0  0  0  0  0  0  0
   -0.7625    0.2513    0.0000 N   0  0  0  0  0  0  0  0  0  0  0  0
   -1.0722    1.7190    0.0000 C   0  0  0  0  0  0  0  0  0  0  0  0
    0.0439    2.7211    0.0000 C   0  0  0  0  0  0  0  0  0  0  0  0
   -0.2658    4.1887    0.0000 C   0  0  0  0  0  0  0  0  0  0  0  0
   -1.6917    4.6543    0.0000 C   0  0  0  0  0  0  0  0  0  0  0  0
   -2.8079    3.6522    0.0000 C   0  0  0  0  0  0  0  0  0  0  0  0
   -2.4982    2.1846    0.0000 C   0  0  0  0  0  0  0  0  0  0  0  0
   -3.6143    1.1825    0.0000 F   0  0  0  0  0  0  0  0  0  0  0  0
   -2.0015    6.1220    0.0000 Br  0  0  0  0  0  0  0  0  0  0  0  0
   -0.1430   -2.6840    0.0000 C   0  0  0  0  0  0  0  0  0  0  0  0
    0.1667   -4.1517    0.0000 O   0  0  0  0  0  0  0  0  0  0  0  0
   -1.5689   -2.2184    0.0000 N   0  0  0  0  0  0  0  0  0  0  0  0
   -2.6851   -3.2205    0.0000 O   0  0  0  0  0  0  0  0  0  0  0  0
   -4.1110   -2.7549    0.0000 C   0  0  0  0  0  0  0  0  0  0  0  0
   -5.2272   -3.7570    0.0000 C   0  0  0  0  0  0  0  0  0  0  0  0
   -6.6531   -3.2914    0.0000 O   0  0  0  0  0  0  0  0  0  0  0  0
  1  2  1  0
  2  3  1  0
  3  4  2  0
  4  5  1  0
  5  6  2  0
  6  7  1  0
  7  8  2  0
  8  9  1  0
  9 10  2  0
 10 11  1  0
  9 12  1  0
 12 13  1  0
 13 14  2  0
 14 15  1  0
 15 16  2  0
 16 17  1  0
 17 18  2  0
 18 19  1  0
 16 20  1  0
  8 21  1  0
 21 22  2  0
 21 23  1  0
 23 24  1  0
 24 25  1  0
 25 26  1  0
 26 27  1  0
  6  2  1  0
 10  5  1  0
 18 13  1  0
M  END
>  <BrandName>  (345) 
Mektovi

>  <Applicants>  (345) 
Novartis

>  <CHEMBL_ID>  (345) 
CHEMBL3187723

>  <Canonical_Smiles>  (345) 
Cn1cnc2c1cc(c(c2F)Nc3ccc(cc3F)Br)C(=O)NOCCO

>  <Chirality>  (345) 
Achiral Molecule

>  <First_Approval>  (345) 
2018

>  <Phase>  (345) 
4.0

>  <SC_Patent>  (345) 
US-7777050-B2

>  <Synonyms>  (345) 
ARRY 438162 | ARRY-162 | ARRY-438162 | BINIMETINIB | MEK-162 | MEK162 | MEKTOVI | NVP-MEK162

>  <Withdrawn>  (345) 
{'', 'Study NCT04870034 in United States was Withdrawn during EARLY_PHASE1 because Issues recruiting'}

>  <Indications>  (345) 
On June 27, 2018, the Food and Drug Administration approved encorafenib and binimetinib in combination patients with unresectable or metastatic melanoma with a BRAF V600E or V600K mutation, as detected by an FDA-approved test.

>  <Type>  (345) 
nan

>  <targets_id>  (345) 
Q02750

>  <Inchi>  (345) 
InChI=1S/C17H15BrF2N4O3/c1-24-8-21-16-13(24)7-10(17(26)23-27-5-4-25)15(14(16)20)22-12-3-2-9(18)6-11(12)19/h2-3,6-8,22,25H,4-5H2,1H3,(H,23,26)

>  <stdInchikey>  (345) 
ACWZRVQXLIRSDF-UHFFFAOYSA-N

>  <csid>  (345) 
8463660

>  <Links>  (345) 
|http://www.chemspider.com/Chemical-Structure.8463660.html|https://www.ebi.ac.uk/chembldb/compound/inspect/CHEMBL3187723|https://pubchem.ncbi.nlm.nih.gov/compound/10288191|https://go.drugbank.com/drugs/DB11967|https://www.rcsb.org/ligand/QO7|https://www.ebi.ac.uk/pdbe-srv/pdbechem/chemicalCompound/show/QO7|https://www.guidetopharmacology.org/GRAC/LigandDisplayForward?7921|https://zinc15.docking.org/substances/ZINC000038460704|https://precision.fda.gov/uniisearch/srs/unii/181R97MR71

>  <LinkName>  (345) 
|ChemSpider|ChEMBL|PubChem|DrugBank|RCSB|PDBe|Guide to Pharmacology|ZINC|FDA SRS

>  <lig_pdb_ID>  (345) 
QO7

>  <pdb_IDs>  (345) 
7m0u

>  <indicationDB>  (345) 


>  <uniprotId>  (345) 


>  <indicationG2P>  (345) 
None

>  <MW>  (345) 
440.0

>  <HBA>  (345) 
6

>  <HBD>  (345) 
3

>  <NRB>  (345) 
6

>  <TPSA>  (345) 
88.4

>  <LogP>  (345) 
3.0

>  <RoF>  (345) 
0

>  <Melting point>  (345) 
nan

>  <Targets>  (345) 
MAP2K1

>  <Kinase families>  (345) 
STE

>  <FDA_approved>  (345) 
Y

$$$$
Dacomitinib
     RDKit          2D

 33 36  0  0  0  0  0  0  0  0999 V2000
   -2.4626    3.7377    0.0000 C   0  0  0  0  0  0  0  0  0  0  0  0
   -2.1170    2.2781    0.0000 O   0  0  0  0  0  0  0  0  0  0  0  0
   -0.6802    1.8475    0.0000 C   0  0  0  0  0  0  0  0  0  0  0  0
    0.4111    2.8767    0.0000 C   0  0  0  0  0  0  0  0  0  0  0  0
    1.8480    2.4461    0.0000 C   0  0  0  0  0  0  0  0  0  0  0  0
    2.1936    0.9865    0.0000 C   0  0  0  0  0  0  0  0  0  0  0  0
    1.1023   -0.0426    0.0000 C   0  0  0  0  0  0  0  0  0  0  0  0
   -0.3346    0.3879    0.0000 C   0  0  0  0  0  0  0  0  0  0  0  0
   -1.4259   -0.6412    0.0000 N   0  0  0  0  0  0  0  0  0  0  0  0
   -2.8627   -0.2107    0.0000 C   0  0  0  0  0  0  0  0  0  0  0  0
   -3.2083    1.2490    0.0000 O   0  0  0  0  0  0  0  0  0  0  0  0
   -3.9540   -1.2398    0.0000 C   0  0  0  0  0  0  0  0  0  0  0  0
   -5.3909   -0.8093    0.0000 C   0  0  0  0  0  0  0  0  0  0  0  0
   -6.4822   -1.8384    0.0000 C   0  0  0  0  0  0  0  0  0  0  0  0
   -7.9191   -1.4079    0.0000 N   0  0  0  0  0  0  0  0  0  0  0  0
   -8.2647    0.0518    0.0000 C   0  0  0  0  0  0  0  0  0  0  0  0
   -9.7016    0.4823    0.0000 C   0  0  0  0  0  0  0  0  0  0  0  0
  -10.7929   -0.5468    0.0000 C   0  0  0  0  0  0  0  0  0  0  0  0
  -10.4473   -2.0065    0.0000 C   0  0  0  0  0  0  0  0  0  0  0  0
   -9.0104   -2.4370    0.0000 C   0  0  0  0  0  0  0  0  0  0  0  0
    3.6305    0.5560    0.0000 C   0  0  0  0  0  0  0  0  0  0  0  0
    4.7218    1.5851    0.0000 N   0  0  0  0  0  0  0  0  0  0  0  0
    4.3762    3.0447    0.0000 C   0  0  0  0  0  0  0  0  0  0  0  0
    2.9393    3.4752    0.0000 N   0  0  0  0  0  0  0  0  0  0  0  0
    3.9761   -0.9037    0.0000 N   0  0  0  0  0  0  0  0  0  0  0  0
    5.4130   -1.3342    0.0000 C   0  0  0  0  0  0  0  0  0  0  0  0
    5.7586   -2.7939    0.0000 C   0  0  0  0  0  0  0  0  0  0  0  0
    7.1955   -3.2244    0.0000 C   0  0  0  0  0  0  0  0  0  0  0  0
    8.2868   -2.1953    0.0000 C   0  0  0  0  0  0  0  0  0  0  0  0
    7.9412   -0.7356    0.0000 C   0  0  0  0  0  0  0  0  0  0  0  0
    6.5043   -0.3051    0.0000 C   0  0  0  0  0  0  0  0  0  0  0  0
    9.0325    0.2935    0.0000 Cl  0  0  0  0  0  0  0  0  0  0  0  0
    9.7237   -2.6258    0.0000 F   0  0  0  0  0  0  0  0  0  0  0  0
  1  2  1  0
  2  3  1  0
  3  4  2  0
  4  5  1  0
  5  6  2  0
  6  7  1  0
  7  8  2  0
  8  9  1  0
  9 10  1  0
 10 11  2  0
 10 12  1  0
 12 13  2  0
 13 14  1  0
 14 15  1  0
 15 16  1  0
 16 17  1  0
 17 18  1  0
 18 19  1  0
 19 20  1  0
  6 21  1  0
 21 22  2  0
 22 23  1  0
 23 24  2  0
 21 25  1  0
 25 26  1  0
 26 27  2  0
 27 28  1  0
 28 29  2  0
 29 30  1  0
 30 31  2  0
 30 32  1  0
 29 33  1  0
  8  3  1  0
 24  5  1  0
 20 15  1  0
 31 26  1  0
M  END
>  <BrandName>  (346) 
Vizimpro

>  <Applicants>  (346) 
Pfizer

>  <CHEMBL_ID>  (346) 
CHEMBL2110732

>  <Canonical_Smiles>  (346) 
COc1cc2c(cc1NC(=O)/C=C/CN3CCCCC3)c(ncn2)Nc4ccc(c(c4)Cl)F

>  <Chirality>  (346) 
Achiral Molecule

>  <First_Approval>  (346) 
2018

>  <Phase>  (346) 
4.0

>  <SC_Patent>  (346) 
US-7772243-B2

>  <Synonyms>  (346) 
DACOMITINIB ANHYDROUS | PF-00299804

>  <Withdrawn>  (346) 
{''}

>  <Indications>  (346) 
On october 27, 2018, the FDA approved dacomitinib to treat metastatic non-small-cell lung cancer

>  <Type>  (346) 
1

>  <targets_id>  (346) 
P00533

>  <Inchi>  (346) 
InChI=1S/C24H25ClFN5O2/c1-33-22-14-20-17(24(28-15-27-20)29-16-7-8-19(26)18(25)12-16)13-21(22)30-23(32)6-5-11-31-9-3-2-4-10-31/h5-8,12-15H,2-4,9-11H2,1H3,(H,30,32)(H,27,28,29)/b6-5+

>  <stdInchikey>  (346) 
LVXJQMNHJWSHET-AATRIKPKSA-N

>  <csid>  (346) 
9685914

>  <Links>  (346) 
|http://www.chemspider.com/Chemical-Structure.9685914.html|https://www.ebi.ac.uk/chembldb/compound/inspect/CHEMBL2110732|https://pubchem.ncbi.nlm.nih.gov/compound/11511120|https://go.drugbank.com/drugs/DB11963|https://www.rcsb.org/ligand/1C9|https://www.ebi.ac.uk/pdbe-srv/pdbechem/chemicalCompound/show/1C9|https://www.guidetopharmacology.org/GRAC/LigandDisplayForward?7422|https://zinc15.docking.org/substances/ZINC000072266312|https://precision.fda.gov/uniisearch/srs/unii/2XJX250C20|https://www.bindingdb.org/bind/chemsearch/marvin/MolStructure.jsp?monomerid=112499

>  <LinkName>  (346) 
|ChemSpider|ChEMBL|PubChem|DrugBank|RCSB|PDBe|Guide to Pharmacology|ZINC|FDA SRS|BindingDB

>  <lig_pdb_ID>  (346) 
1C9

>  <pdb_IDs>  (346) 
4i23 4i24

>  <indicationDB>  (346) 


>  <uniprotId>  (346) 


>  <indicationG2P>  (346) 
None

>  <MW>  (346) 
469.2

>  <HBA>  (346) 
6

>  <HBD>  (346) 
2

>  <NRB>  (346) 
7

>  <TPSA>  (346) 
79.4

>  <LogP>  (346) 
5.2

>  <RoF>  (346) 
1

>  <Melting point>  (346) 
nan

>  <Targets>  (346) 
EGFR

>  <Kinase families>  (346) 
Tyr

>  <FDA_approved>  (346) 
Y

$$$$
Cabozantinib
     RDKit          2D

 37 41  0  0  0  0  0  0  0  0999 V2000
   -9.8401   -1.8981    0.0000 C   0  0  0  0  0  0  0  0  0  0  0  0
   -8.3423   -1.9781    0.0000 O   0  0  0  0  0  0  0  0  0  0  0  0
   -7.5240   -0.7209    0.0000 C   0  0  0  0  0  0  0  0  0  0  0  0
   -6.0262   -0.8009    0.0000 C   0  0  0  0  0  0  0  0  0  0  0  0
   -5.2079    0.4563    0.0000 C   0  0  0  0  0  0  0  0  0  0  0  0
   -3.7101    0.3763    0.0000 C   0  0  0  0  0  0  0  0  0  0  0  0
   -2.8918    1.6334    0.0000 C   0  0  0  0  0  0  0  0  0  0  0  0
   -3.5715    2.9706    0.0000 C   0  0  0  0  0  0  0  0  0  0  0  0
   -5.0693    3.0506    0.0000 N   0  0  0  0  0  0  0  0  0  0  0  0
   -5.8876    1.7935    0.0000 C   0  0  0  0  0  0  0  0  0  0  0  0
   -7.3854    1.8735    0.0000 C   0  0  0  0  0  0  0  0  0  0  0  0
   -8.2037    0.6163    0.0000 C   0  0  0  0  0  0  0  0  0  0  0  0
   -9.7015    0.6963    0.0000 O   0  0  0  0  0  0  0  0  0  0  0  0
  -10.3812    2.0335    0.0000 C   0  0  0  0  0  0  0  0  0  0  0  0
   -3.0304   -0.9609    0.0000 O   0  0  0  0  0  0  0  0  0  0  0  0
   -1.5326   -1.0410    0.0000 C   0  0  0  0  0  0  0  0  0  0  0  0
   -0.8529   -2.3782    0.0000 C   0  0  0  0  0  0  0  0  0  0  0  0
    0.6449   -2.4582    0.0000 C   0  0  0  0  0  0  0  0  0  0  0  0
    1.4632   -1.2010    0.0000 C   0  0  0  0  0  0  0  0  0  0  0  0
    0.7835    0.1362    0.0000 C   0  0  0  0  0  0  0  0  0  0  0  0
   -0.7143    0.2162    0.0000 C   0  0  0  0  0  0  0  0  0  0  0  0
    2.9610   -1.2810    0.0000 N   0  0  0  0  0  0  0  0  0  0  0  0
    3.6407   -2.6182    0.0000 C   0  0  0  0  0  0  0  0  0  0  0  0
    2.8224   -3.8754    0.0000 O   0  0  0  0  0  0  0  0  0  0  0  0
    5.1385   -2.6982    0.0000 C   0  0  0  0  0  0  0  0  0  0  0  0
    6.5187   -3.2857    0.0000 C   0  0  0  0  0  0  0  0  0  0  0  0
    5.3198   -4.1872    0.0000 C   0  0  0  0  0  0  0  0  0  0  0  0
    5.4774   -1.2370    0.0000 C   0  0  0  0  0  0  0  0  0  0  0  0
    4.3814   -0.2129    0.0000 O   0  0  0  0  0  0  0  0  0  0  0  0
    6.9123   -0.7999    0.0000 N   0  0  0  0  0  0  0  0  0  0  0  0
    7.2512    0.6613    0.0000 C   0  0  0  0  0  0  0  0  0  0  0  0
    8.6861    1.0984    0.0000 C   0  0  0  0  0  0  0  0  0  0  0  0
    9.0250    2.5596    0.0000 C   0  0  0  0  0  0  0  0  0  0  0  0
    7.9290    3.5837    0.0000 C   0  0  0  0  0  0  0  0  0  0  0  0
    6.4941    3.1466    0.0000 C   0  0  0  0  0  0  0  0  0  0  0  0
    6.1552    1.6854    0.0000 C   0  0  0  0  0  0  0  0  0  0  0  0
    8.2679    5.0449    0.0000 F   0  0  0  0  0  0  0  0  0  0  0  0
  1  2  1  0
  2  3  1  0
  3  4  2  0
  4  5  1  0
  5  6  2  0
  6  7  1  0
  7  8  2  0
  8  9  1  0
  9 10  2  0
 10 11  1  0
 11 12  2  0
 12 13  1  0
 13 14  1  0
  6 15  1  0
 15 16  1  0
 16 17  2  0
 17 18  1  0
 18 19  2  0
 19 20  1  0
 20 21  2  0
 19 22  1  0
 22 23  1  0
 23 24  2  0
 23 25  1  0
 25 26  1  0
 26 27  1  0
 25 28  1  0
 28 29  2  0
 28 30  1  0
 30 31  1  0
 31 32  2  0
 32 33  1  0
 33 34  2  0
 34 35  1  0
 35 36  2  0
 34 37  1  0
 12  3  1  0
 10  5  1  0
 21 16  1  0
 27 25  1  0
 36 31  1  0
M  END
>  <BrandName>  (347) 
Cabometyx;Cometriq

>  <Applicants>  (347) 
Exelixis

>  <CHEMBL_ID>  (347) 
CHEMBL2105717

>  <Canonical_Smiles>  (347) 
COc1cc2c(ccnc2cc1OC)Oc3ccc(cc3)NC(=O)C4(CC4)C(=O)Nc5ccc(cc5)F

>  <Chirality>  (347) 
Achiral Molecule

>  <First_Approval>  (347) 
2012

>  <Phase>  (347) 
4.0

>  <SC_Patent>  (347) 
US-7579473-B2

>  <Synonyms>  (347) 
BMS-907351 | BMS-907351 FREE BASE | CABOMETYX | CABOZANTINIB | COMETRIQ | XL-184 | XL-184 FREE BASE | XL184

>  <Withdrawn>  (347) 
{'', 'Study NCT05039736 in unknown country was Withdrawn during PHASE2 because 0 participants accrued', 'Study NCT04149275 in United States was Withdrawn during PHASE2 because Funding withdrawn by sponsor'}

>  <Indications>  (347) 
For the treatment of metastatic medullary thyroid cancer and for the treatment of patients with advanced renal cell carcinoma (RCC) who have received prior anti-angiogenic therapy.

>  <Type>  (347) 
2

>  <targets_id>  (347) 
P08581|P35968|P07949

>  <Inchi>  (347) 
InChI=1S/C28H24FN3O5/c1-35-24-15-21-22(16-25(24)36-2)30-14-11-23(21)37-20-9-7-19(8-10-20)32-27(34)28(12-13-28)26(33)31-18-5-3-17(29)4-6-18/h3-11,14-16H,12-13H2,1-2H3,(H,31,33)(H,32,34)

>  <stdInchikey>  (347) 
ONIQOQHATWINJY-UHFFFAOYSA-N

>  <csid>  (347) 
25948202

>  <Links>  (347) 
|http://www.chemspider.com/Chemical-Structure.25948202.html|https://www.ebi.ac.uk/chembldb/compound/inspect/CHEMBL2105717|https://pubchem.ncbi.nlm.nih.gov/compound/25102847|https://go.drugbank.com/drugs/DB08875|https://www.guidetopharmacology.org/GRAC/LigandDisplayForward?5887|https://zinc15.docking.org/substances/ZINC000070466416|https://precision.fda.gov/uniisearch/srs/unii/1C39JW444G|https://www.bindingdb.org/bind/chemsearch/marvin/MolStructure.jsp?monomerid=50021574

>  <LinkName>  (347) 
|ChemSpider|ChEMBL|PubChem|DrugBank|Guide to Pharmacology|ZINC|FDA SRS|BindingDB

>  <lig_pdb_ID>  (347) 


>  <pdb_IDs>  (347) 


>  <indicationDB>  (347) 


>  <uniprotId>  (347) 


>  <indicationG2P>  (347) 
None

>  <MW>  (347) 
501.2

>  <HBA>  (347) 
6

>  <HBD>  (347) 
2

>  <NRB>  (347) 
8

>  <TPSA>  (347) 
98.8

>  <LogP>  (347) 
5.5

>  <RoF>  (347) 
2

>  <Melting point>  (347) 
nan

>  <Targets>  (347) 
MET; KDR; RET

>  <Kinase families>  (347) 
Tyr

>  <FDA_approved>  (347) 
Y

$$$$
Ensartinib
     RDKit          2D

 38 41  0  0  0  0  0  0  0  0999 V2000
  -10.0942   -3.0801    0.0000 C   0  0  0  0  0  0  0  0  0  0  0  0
   -8.6841   -2.5686    0.0000 C   0  0  0  0  0  0  0  0  0  0  0  0
   -8.4221   -1.0917    0.0000 C   0  0  0  0  0  0  0  0  0  0  0  0
   -7.0120   -0.5801    0.0000 N   0  0  0  0  0  0  0  0  0  0  0  0
   -5.8639   -1.5455    0.0000 C   0  0  0  0  0  0  0  0  0  0  0  0
   -6.1260   -3.0224    0.0000 C   0  0  0  0  0  0  0  0  0  0  0  0
   -7.5360   -3.5340    0.0000 N   0  0  0  0  0  0  0  0  0  0  0  0
   -4.9779   -3.9878    0.0000 C   0  0  0  0  0  0  0  0  0  0  0  0
   -6.7500    0.8968    0.0000 C   0  0  0  0  0  0  0  0  0  0  0  0
   -7.8980    1.8622    0.0000 O   0  0  0  0  0  0  0  0  0  0  0  0
   -5.3399    1.4084    0.0000 C   0  0  0  0  0  0  0  0  0  0  0  0
   -4.1918    0.4430    0.0000 C   0  0  0  0  0  0  0  0  0  0  0  0
   -2.7818    0.9545    0.0000 C   0  0  0  0  0  0  0  0  0  0  0  0
   -2.5197    2.4315    0.0000 C   0  0  0  0  0  0  0  0  0  0  0  0
   -3.6678    3.3969    0.0000 C   0  0  0  0  0  0  0  0  0  0  0  0
   -5.0779    2.8853    0.0000 C   0  0  0  0  0  0  0  0  0  0  0  0
   -1.1097    2.9430    0.0000 N   0  0  0  0  0  0  0  0  0  0  0  0
    0.0384    1.9776    0.0000 C   0  0  0  0  0  0  0  0  0  0  0  0
   -0.2236    0.5007    0.0000 O   0  0  0  0  0  0  0  0  0  0  0  0
    1.4485    2.4892    0.0000 C   0  0  0  0  0  0  0  0  0  0  0  0
    2.5965    1.5238    0.0000 C   0  0  0  0  0  0  0  0  0  0  0  0
    4.0066    2.0354    0.0000 C   0  0  0  0  0  0  0  0  0  0  0  0
    4.2686    3.5123    0.0000 C   0  0  0  0  0  0  0  0  0  0  0  0
    3.1206    4.4777    0.0000 N   0  0  0  0  0  0  0  0  0  0  0  0
    1.7105    3.9661    0.0000 N   0  0  0  0  0  0  0  0  0  0  0  0
    5.6787    4.0239    0.0000 N   0  0  0  0  0  0  0  0  0  0  0  0
    5.1546    1.0700    0.0000 O   0  0  0  0  0  0  0  0  0  0  0  0
    4.8926   -0.4070    0.0000 C   0  0  0  0  0  0  0  0  0  0  0  0
    3.4825   -0.9185    0.0000 C   0  0  0  0  0  0  0  0  0  0  0  0
    6.0407   -1.3723    0.0000 C   0  0  0  0  0  0  0  0  0  0  0  0
    7.4508   -0.8608    0.0000 C   0  0  0  0  0  0  0  0  0  0  0  0
    8.5988   -1.8262    0.0000 C   0  0  0  0  0  0  0  0  0  0  0  0
    8.3368   -3.3031    0.0000 C   0  0  0  0  0  0  0  0  0  0  0  0
    6.9267   -3.8147    0.0000 C   0  0  0  0  0  0  0  0  0  0  0  0
    5.7787   -2.8493    0.0000 C   0  0  0  0  0  0  0  0  0  0  0  0
    4.3686   -3.3608    0.0000 Cl  0  0  0  0  0  0  0  0  0  0  0  0
    6.6647   -5.2916    0.0000 F   0  0  0  0  0  0  0  0  0  0  0  0
    7.7128    0.6161    0.0000 Cl  0  0  0  0  0  0  0  0  0  0  0  0
  2  1  1  6
  2  3  1  0
  3  4  1  0
  4  5  1  0
  5  6  1  0
  6  7  1  0
  6  8  1  6
  4  9  1  0
  9 10  2  0
  9 11  1  0
 11 12  2  0
 12 13  1  0
 13 14  2  0
 14 15  1  0
 15 16  2  0
 14 17  1  0
 17 18  1  0
 18 19  2  0
 18 20  1  0
 20 21  2  0
 21 22  1  0
 22 23  2  0
 23 24  1  0
 24 25  2  0
 23 26  1  0
 22 27  1  0
 27 28  1  0
 28 29  1  1
 28 30  1  0
 30 31  2  0
 31 32  1  0
 32 33  2  0
 33 34  1  0
 34 35  2  0
 35 36  1  0
 34 37  1  0
 31 38  1  0
  7  2  1  0
 16 11  1  0
 25 20  1  0
 35 30  1  0
M  END
>  <BrandName>  (348) 


>  <Applicants>  (348) 
Xcovery

>  <CHEMBL_ID>  (348) 
CHEMBL4113131

>  <Canonical_Smiles>  (348) 
C[C@@H]1CN(C[C@@H](N1)C)C(=O)c2ccc(cc2)NC(=O)c3cc(c(nn3)N)O[C@H](C)c4c(ccc(c4Cl)F)Cl

>  <Chirality>  (348) 
Single Stereoisomer

>  <First_Approval>  (348) 
2024

>  <Phase>  (348) 
4.0

>  <SC_Patent>  (348) 
nan

>  <Synonyms>  (348) 
ENSARTINIB | X-396

>  <Withdrawn>  (348) 
{''}

>  <Indications>  (348) 
On december 2024, FDA approved ensartinib to treat non-small cell lung cancer

>  <Type>  (348) 
nan

>  <targets_id>  (348) 
Q9UM73

>  <Inchi>  (348) 
InChI=1S/C26H27Cl2FN6O3/c1-13-11-35(12-14(2)31-13)26(37)16-4-6-17(7-5-16)32-25(36)20-10-21(24(30)34-33-20)38-15(3)22-18(27)8-9-19(29)23(22)28/h4-10,13-15,31H,11-12H2,1-3H3,(H2,30,34)(H,32,36)/t13-,14+,15-/m1/s1

>  <stdInchikey>  (348) 
GLYMPHUVMRFTFV-QLFBSQMISA-N

>  <csid>  (348) 
58828042

>  <Links>  (348) 
|http://www.chemspider.com/Chemical-Structure.58828042.html|https://www.ebi.ac.uk/chembldb/compound/inspect/CHEMBL4113131|https://pubchem.ncbi.nlm.nih.gov/compound/56960363|https://go.drugbank.com/drugs/DB14860|https://zinc15.docking.org/substances/ZINC000199407645|https://precision.fda.gov/uniisearch/srs/unii/SMA5ZS5B22|https://www.bindingdb.org/bind/chemsearch/marvin/MolStructure.jsp?monomerid=179297

>  <LinkName>  (348) 
|ChemSpider|ChEMBL|PubChem|DrugBank|ZINC|FDA SRS|BindingDB

>  <lig_pdb_ID>  (348) 


>  <pdb_IDs>  (348) 


>  <indicationDB>  (348) 


>  <uniprotId>  (348) 


>  <indicationG2P>  (348) 


>  <MW>  (348) 
560.2

>  <HBA>  (348) 
7

>  <HBD>  (348) 
3

>  <NRB>  (348) 
6

>  <TPSA>  (348) 
122.5

>  <LogP>  (348) 
4.7

>  <RoF>  (348) 
1

>  <Melting point>  (348) 
nan

>  <Targets>  (348) 
ALK

>  <Kinase families>  (348) 
Tyr

>  <FDA_approved>  (348) 
Y

$$$$
Entrectinib
     RDKit          2D

 41 46  0  0  0  0  0  0  0  0999 V2000
   -7.4763   -5.6972    0.0000 C   0  0  0  0  0  0  0  0  0  0  0  0
   -6.4270   -4.6253    0.0000 N   0  0  0  0  0  0  0  0  0  0  0  0
   -6.8307   -3.1806    0.0000 C   0  0  0  0  0  0  0  0  0  0  0  0
   -5.7814   -2.1087    0.0000 C   0  0  0  0  0  0  0  0  0  0  0  0
   -4.3285   -2.4814    0.0000 N   0  0  0  0  0  0  0  0  0  0  0  0
   -3.9248   -3.9261    0.0000 C   0  0  0  0  0  0  0  0  0  0  0  0
   -4.9740   -4.9980    0.0000 C   0  0  0  0  0  0  0  0  0  0  0  0
   -3.2792   -1.4095    0.0000 C   0  0  0  0  0  0  0  0  0  0  0  0
   -1.8262   -1.7822    0.0000 C   0  0  0  0  0  0  0  0  0  0  0  0
   -0.7770   -0.7102    0.0000 C   0  0  0  0  0  0  0  0  0  0  0  0
   -1.1807    0.7344    0.0000 C   0  0  0  0  0  0  0  0  0  0  0  0
   -2.6336    1.1071    0.0000 C   0  0  0  0  0  0  0  0  0  0  0  0
   -3.6829    0.0352    0.0000 C   0  0  0  0  0  0  0  0  0  0  0  0
   -3.0373    2.5518    0.0000 N   0  0  0  0  0  0  0  0  0  0  0  0
   -4.4903    2.9245    0.0000 C   0  0  0  0  0  0  0  0  0  0  0  0
   -4.8940    4.3692    0.0000 C   0  0  0  0  0  0  0  0  0  0  0  0
   -6.3469    4.7419    0.0000 C   0  0  0  0  0  0  0  0  0  0  0  0
   -7.3962    3.6699    0.0000 O   0  0  0  0  0  0  0  0  0  0  0  0
   -6.9925    2.2253    0.0000 C   0  0  0  0  0  0  0  0  0  0  0  0
   -5.5395    1.8526    0.0000 C   0  0  0  0  0  0  0  0  0  0  0  0
   -0.1314    1.8063    0.0000 C   0  0  0  0  0  0  0  0  0  0  0  0
   -0.5351    3.2510    0.0000 O   0  0  0  0  0  0  0  0  0  0  0  0
    1.3215    1.4336    0.0000 N   0  0  0  0  0  0  0  0  0  0  0  0
    2.3708    2.5056    0.0000 C   0  0  0  0  0  0  0  0  0  0  0  0
    3.8548    2.2868    0.0000 C   0  0  0  0  0  0  0  0  0  0  0  0
    4.6851    1.0376    0.0000 C   0  0  0  0  0  0  0  0  0  0  0  0
    6.1821    1.1321    0.0000 C   0  0  0  0  0  0  0  0  0  0  0  0
    6.8488    2.4758    0.0000 C   0  0  0  0  0  0  0  0  0  0  0  0
    6.0184    3.7250    0.0000 C   0  0  0  0  0  0  0  0  0  0  0  0
    4.5214    3.6305    0.0000 C   0  0  0  0  0  0  0  0  0  0  0  0
    3.4495    4.6797    0.0000 N   0  0  0  0  0  0  0  0  0  0  0  0
    2.1203    3.9845    0.0000 N   0  0  0  0  0  0  0  0  0  0  0  0
    7.0125   -0.1171    0.0000 C   0  0  0  0  0  0  0  0  0  0  0  0
    6.3458   -1.4609    0.0000 C   0  0  0  0  0  0  0  0  0  0  0  0
    4.8488   -1.5554    0.0000 C   0  0  0  0  0  0  0  0  0  0  0  0
    4.1822   -2.8991    0.0000 C   0  0  0  0  0  0  0  0  0  0  0  0
    5.0125   -4.1483    0.0000 C   0  0  0  0  0  0  0  0  0  0  0  0
    6.5095   -4.0538    0.0000 C   0  0  0  0  0  0  0  0  0  0  0  0
    7.1762   -2.7101    0.0000 C   0  0  0  0  0  0  0  0  0  0  0  0
    7.3399   -5.3030    0.0000 F   0  0  0  0  0  0  0  0  0  0  0  0
    2.6851   -2.9936    0.0000 F   0  0  0  0  0  0  0  0  0  0  0  0
  1  2  1  0
  2  3  1  0
  3  4  1  0
  4  5  1  0
  5  6  1  0
  6  7  1  0
  5  8  1  0
  8  9  2  0
  9 10  1  0
 10 11  2  0
 11 12  1  0
 12 13  2  0
 12 14  1  0
 14 15  1  0
 15 16  1  0
 16 17  1  0
 17 18  1  0
 18 19  1  0
 19 20  1  0
 11 21  1  0
 21 22  2  0
 21 23  1  0
 23 24  1  0
 24 25  1  0
 25 26  2  0
 26 27  1  0
 27 28  2  0
 28 29  1  0
 29 30  2  0
 30 31  1  0
 31 32  1  0
 27 33  1  0
 33 34  1  0
 34 35  2  0
 35 36  1  0
 36 37  2  0
 37 38  1  0
 38 39  2  0
 38 40  1  0
 36 41  1  0
  7  2  1  0
 13  8  1  0
 20 15  1  0
 32 24  2  0
 30 25  1  0
 39 34  1  0
M  END
>  <BrandName>  (349) 
Rozlytrek

>  <Applicants>  (349) 
Ignyta

>  <CHEMBL_ID>  (349) 
CHEMBL1983268

>  <Canonical_Smiles>  (349) 
CN1CCN(CC1)c2ccc(c(c2)NC3CCOCC3)C(=O)Nc4c5cc(ccc5[nH]n4)Cc6cc(cc(c6)F)F

>  <Chirality>  (349) 
Achiral Molecule

>  <First_Approval>  (349) 
2019

>  <Phase>  (349) 
4.0

>  <SC_Patent>  (349) 
US-8299057-B2

>  <Synonyms>  (349) 
ENTRECTINIB | NMS-E628 | ROZLYTREK | RXDX-101

>  <Withdrawn>  (349) 
{'', 'Study NCT05238831 in unknown country was Withdrawn during EARLY_PHASE1 because Withdrawn due to a change in therapeutic interventions'}

>  <Indications>  (349) 
On august 2019, FDA approved entrectinib to treat adult patients with metastatic non-small cell lung cancer (NSCLC) whose tumors are ROS1-positive and to treat adult and pediatric patients 12 years of age and older with solid tumors

>  <Type>  (349) 
1

>  <targets_id>  (349) 
P04629|Q16620|Q16288|P08922|Q9UM73

>  <Inchi>  (349) 
InChI=1S/C31H34F2N6O2/c1-38-8-10-39(11-9-38)25-3-4-26(29(19-25)34-24-6-12-41-13-7-24)31(40)35-30-27-17-20(2-5-28(27)36-37-30)14-21-15-22(32)18-23(33)16-21/h2-5,15-19,24,34H,6-14H2,1H3,(H2,35,36,37,40)

>  <stdInchikey>  (349) 
HAYYBYPASCDWEQ-UHFFFAOYSA-N

>  <csid>  (349) 
24808589

>  <Links>  (349) 
|http://www.chemspider.com/Chemical-Structure.24808589.html|https://www.ebi.ac.uk/chembldb/compound/inspect/CHEMBL1983268|https://pubchem.ncbi.nlm.nih.gov/compound/25141092|https://go.drugbank.com/drugs/DB11986|https://www.rcsb.org/ligand/YMX|https://www.ebi.ac.uk/pdbe-srv/pdbechem/chemicalCompound/show/YMX|https://www.guidetopharmacology.org/GRAC/LigandDisplayForward?8290|https://zinc15.docking.org/substances/ZINC000043204146|https://precision.fda.gov/uniisearch/srs/unii/L5ORF0AN1I|https://www.bindingdb.org/bind/chemsearch/marvin/MolStructure.jsp?monomerid=158154

>  <LinkName>  (349) 
|ChemSpider|ChEMBL|PubChem|DrugBank|RCSB|PDBe|Guide to Pharmacology|ZINC|FDA SRS|BindingDB

>  <lig_pdb_ID>  (349) 
YMX

>  <pdb_IDs>  (349) 
5fto 5kvt

>  <indicationDB>  (349) 


>  <uniprotId>  (349) 


>  <indicationG2P>  (349) 
None

>  <MW>  (349) 
560.3

>  <HBA>  (349) 
6

>  <HBD>  (349) 
3

>  <NRB>  (349) 
7

>  <TPSA>  (349) 
85.5

>  <LogP>  (349) 
5.0

>  <RoF>  (349) 
2

>  <Melting point>  (349) 
nan

>  <Targets>  (349) 
NTRK1; NTRK2; NTRK3; ROS1; ALK

>  <Kinase families>  (349) 
Tyr

>  <FDA_approved>  (349) 
Y

$$$$
Dasatinib
     RDKit          2D

 33 36  0  0  0  0  0  0  0  0999 V2000
   -2.3701   -1.7411    0.0000 C   0  0  0  0  0  0  0  0  0  0  0  0
   -3.6146   -0.9038    0.0000 C   0  0  0  0  0  0  0  0  0  0  0  0
   -4.9621   -1.5628    0.0000 C   0  0  0  0  0  0  0  0  0  0  0  0
   -6.2066   -0.7255    0.0000 C   0  0  0  0  0  0  0  0  0  0  0  0
   -6.1037    0.7710    0.0000 C   0  0  0  0  0  0  0  0  0  0  0  0
   -4.7562    1.4301    0.0000 C   0  0  0  0  0  0  0  0  0  0  0  0
   -3.5117    0.5927    0.0000 C   0  0  0  0  0  0  0  0  0  0  0  0
   -2.1643    1.2518    0.0000 N   0  0  0  0  0  0  0  0  0  0  0  0
   -2.0613    2.7483    0.0000 C   0  0  0  0  0  0  0  0  0  0  0  0
   -3.3059    3.5856    0.0000 O   0  0  0  0  0  0  0  0  0  0  0  0
   -0.7139    3.4074    0.0000 C   0  0  0  0  0  0  0  0  0  0  0  0
   -0.4551    4.8849    0.0000 C   0  0  0  0  0  0  0  0  0  0  0  0
    1.0301    5.0953    0.0000 N   0  0  0  0  0  0  0  0  0  0  0  0
    1.6891    3.7479    0.0000 C   0  0  0  0  0  0  0  0  0  0  0  0
    0.6113    2.7047    0.0000 S   0  0  0  0  0  0  0  0  0  0  0  0
    3.1667    3.4891    0.0000 N   0  0  0  0  0  0  0  0  0  0  0  0
    3.6813    2.0801    0.0000 C   0  0  0  0  0  0  0  0  0  0  0  0
    2.7184    0.9300    0.0000 C   0  0  0  0  0  0  0  0  0  0  0  0
    3.2331   -0.4790    0.0000 C   0  0  0  0  0  0  0  0  0  0  0  0
    4.7106   -0.7378    0.0000 N   0  0  0  0  0  0  0  0  0  0  0  0
    5.6734    0.4124    0.0000 C   0  0  0  0  0  0  0  0  0  0  0  0
    5.1588    1.8214    0.0000 N   0  0  0  0  0  0  0  0  0  0  0  0
    7.1509    0.1536    0.0000 C   0  0  0  0  0  0  0  0  0  0  0  0
    2.2702   -1.6291    0.0000 N   0  0  0  0  0  0  0  0  0  0  0  0
    0.7927   -1.3704    0.0000 C   0  0  0  0  0  0  0  0  0  0  0  0
   -0.1702   -2.5205    0.0000 C   0  0  0  0  0  0  0  0  0  0  0  0
    0.3445   -3.9295    0.0000 N   0  0  0  0  0  0  0  0  0  0  0  0
    1.8220   -4.1883    0.0000 C   0  0  0  0  0  0  0  0  0  0  0  0
    2.7848   -3.0381    0.0000 C   0  0  0  0  0  0  0  0  0  0  0  0
   -0.6184   -5.0796    0.0000 C   0  0  0  0  0  0  0  0  0  0  0  0
   -0.1038   -6.4886    0.0000 C   0  0  0  0  0  0  0  0  0  0  0  0
   -1.0667   -7.6388    0.0000 O   0  0  0  0  0  0  0  0  0  0  0  0
   -4.6533    2.9265    0.0000 Cl  0  0  0  0  0  0  0  0  0  0  0  0
  1  2  1  0
  2  3  2  0
  3  4  1  0
  4  5  2  0
  5  6  1  0
  6  7  2  0
  7  8  1  0
  8  9  1  0
  9 10  2  0
  9 11  1  0
 11 12  2  0
 12 13  1  0
 13 14  2  0
 14 15  1  0
 14 16  1  0
 16 17  1  0
 17 18  2  0
 18 19  1  0
 19 20  2  0
 20 21  1  0
 21 22  2  0
 21 23  1  0
 19 24  1  0
 24 25  1  0
 25 26  1  0
 26 27  1  0
 27 28  1  0
 28 29  1  0
 27 30  1  0
 30 31  1  0
 31 32  1  0
  6 33  1  0
  7  2  1  0
 15 11  1  0
 22 17  1  0
 29 24  1  0
M  END
>  <BrandName>  (350) 
Dasatinib;Dasatinib accordpharma;Sprycel

>  <Applicants>  (350) 
Bristol Myers Squibb

>  <CHEMBL_ID>  (350) 
CHEMBL1421

>  <Canonical_Smiles>  (350) 
Cc1cccc(c1NC(=O)c2cnc(s2)Nc3cc(nc(n3)C)N4CCN(CC4)CCO)Cl

>  <Chirality>  (350) 
Achiral Molecule

>  <First_Approval>  (350) 
2006

>  <Phase>  (350) 
4.0

>  <SC_Patent>  (350) 
US-7491725-B2

>  <Synonyms>  (350) 
BMS-354825 | BMS-354825 HYDRATE | BMS-354825-03 | DASATINIB | DASATINIB ACCORDPHARMA | DASATINIB HYDRATE | DASATINIB MONOHYDRATE | NSC-759877 | SPRYCEL

>  <Withdrawn>  (350) 
{'', 'Study NCT02815059 in United States was Withdrawn during PHASE1 because Termination of Investigator Initiated Studies using Ibrutinib', 'Study NCT04994561 in unknown country was Withdrawn during PHASE1 because Study was withdrawn', 'Study NCT00829647 in unknown country was Withdrawn during PHASE1 because Unable to enroll', 'Study NCT01826838 in unknown country was Withdrawn during PHASE1 because Lack of patients', 'Study NCT02923986 in United States was Withdrawn during PHASE1 because No enrollment', 'Study NCT02680951 in unknown country was Withdrawn during PHASE1 because Withdrawn due to lack of participants', 'Study NCT00872976 in United States was Withdrawn during PHASE1 because Business Objectives Changed', 'Study NCT03560908 in China was Withdrawn during PHASE1 because No enough eligable participants enrolled', 'Study NCT04845035 in United States was Withdrawn during PHASE2 because The PI plans to revise the study design in a new protocol', 'Study NCT04830735 in United States was Withdrawn during PHASE2 because PI decided not to pursue study', 'Study NCT04439305 in United States was Withdrawn during PHASE2 because zero accrual', 'Study NCT00324077 in United States was Withdrawn during PHASE1 because Insufficient Enrollment', 'Study NCT03414450 in United States was Withdrawn during PHASE1 because Withdrawal requested by D3', 'Study NCT02129166 in unknown country was Withdrawn during PHASE1 because PI resigned'}

>  <Indications>  (350) 
For the treatment of adults with chronic, accelerated, or myeloid or lymphoid blast phase chronic myeloid leukemia with resistance or intolerance to prior therapy. Also indicated for the treatment of adults with Philadelphia chromosome-positive acute lymphoblastic leukemia with resistance or intolerance to prior therapy.

>  <Type>  (350) 
1

>  <targets_id>  (350) 
P00519|P12931|P29317|P06239|P07947|P10721|P09619|P42684|P06241

>  <Inchi>  (350) 
InChI=1S/C22H26ClN7O2S/c1-14-4-3-5-16(23)20(14)28-21(32)17-13-24-22(33-17)27-18-12-19(26-15(2)25-18)30-8-6-29(7-9-30)10-11-31/h3-5,12-13,31H,6-11H2,1-2H3,(H,28,32)(H,24,25,26,27)

>  <stdInchikey>  (350) 
ZBNZXTGUTAYRHI-UHFFFAOYSA-N

>  <csid>  (350) 
2323020

>  <Links>  (350) 
|http://www.chemspider.com/Chemical-Structure.2323020.html|https://www.ebi.ac.uk/chembldb/compound/inspect/CHEMBL1421|https://pubchem.ncbi.nlm.nih.gov/compound/3062316|https://go.drugbank.com/drugs/DB01254|https://www.rcsb.org/ligand/1N1|https://www.ebi.ac.uk/pdbe-srv/pdbechem/chemicalCompound/show/1N1|https://www.guidetopharmacology.org/GRAC/LigandDisplayForward?5678|https://zinc15.docking.org/substances/ZINC000003986735|https://precision.fda.gov/uniisearch/srs/unii/X78UG0A0RN|https://www.bindingdb.org/bind/chemsearch/marvin/MolStructure.jsp?monomerid=13216

>  <LinkName>  (350) 
|ChemSpider|ChEMBL|PubChem|DrugBank|RCSB|PDBe|Guide to Pharmacology|ZINC|FDA SRS|BindingDB

>  <lig_pdb_ID>  (350) 
1N1

>  <pdb_IDs>  (350) 
2gqg 2y6o 2zva 3g5d 3k54 3lfa 3oct 3oht 3qlg 3sxr 4qms 4xey 4xli 5bvw 5h2u 5i9y 5owr 5vcv 6bsd 6fnm 7erk 7n9g 8s9f

>  <indicationDB>  (350) 


>  <uniprotId>  (350) 


>  <indicationG2P>  (350) 
None

>  <MW>  (350) 
487.2

>  <HBA>  (350) 
9

>  <HBD>  (350) 
3

>  <NRB>  (350) 
7

>  <TPSA>  (350) 
106.5

>  <LogP>  (350) 
3.3

>  <RoF>  (350) 
0

>  <Melting point>  (350) 
280-286 C

>  <Targets>  (350) 
ABL1; SRC; EPHA2; LCK; YES1; KIT; PDGFRB; ABL2; FYN

>  <Kinase families>  (350) 
Tyr

>  <FDA_approved>  (350) 
Y

$$$$
Deucravacitinib
     RDKit          2D

 34 37  0  0  0  0  0  0  0  0999 V2000
    2.8731    5.4020    0.0000 C   0  0  0  0  0  0  0  0  0  0  0  0
   -7.8657    1.7525    0.0000 C   0  0  0  0  0  0  0  0  0  0  0  0
   -1.7154    2.5392    0.0000 C   0  0  0  0  0  0  0  0  0  0  0  0
   -1.5303   -2.8660    0.0000 C   0  0  0  0  0  0  0  0  0  0  0  0
   -2.9849   -2.4995    0.0000 C   0  0  0  0  0  0  0  0  0  0  0  0
   -0.4857   -1.7895    0.0000 C   0  0  0  0  0  0  0  0  0  0  0  0
    2.8768   -6.8628    0.0000 C   0  0  0  0  0  0  0  0  0  0  0  0
    4.3197   -6.4529    0.0000 C   0  0  0  0  0  0  0  0  0  0  0  0
    2.0135   -1.0796    0.0000 C   0  0  0  0  0  0  0  0  0  0  0  0
   -7.2709   -0.8535    0.0000 C   0  0  0  0  0  0  0  0  0  0  0  0
    3.2432   -5.4083    0.0000 C   0  0  0  0  0  0  0  0  0  0  0  0
   -3.3948   -1.0566    0.0000 C   0  0  0  0  0  0  0  0  0  0  0  0
   -0.8956   -0.3466    0.0000 C   0  0  0  0  0  0  0  0  0  0  0  0
    1.6036    0.3633    0.0000 C   0  0  0  0  0  0  0  0  0  0  0  0
    3.4681   -1.4460    0.0000 C   0  0  0  0  0  0  0  0  0  0  0  0
    2.6483    1.4398    0.0000 C   0  0  0  0  0  0  0  0  0  0  0  0
   -2.3501    0.0198    0.0000 C   0  0  0  0  0  0  0  0  0  0  0  0
   -4.8493   -0.6901    0.0000 C   0  0  0  0  0  0  0  0  0  0  0  0
    2.8333   -3.9654    0.0000 C   0  0  0  0  0  0  0  0  0  0  0  0
    2.2384    2.8827    0.0000 C   0  0  0  0  0  0  0  0  0  0  0  0
    3.2830    3.9591    0.0000 N   0  0  0  0  0  0  0  0  0  0  0  0
   -6.0007   -1.6515    0.0000 N   0  0  0  0  0  0  0  0  0  0  0  0
    0.1491    0.7298    0.0000 N   0  0  0  0  0  0  0  0  0  0  0  0
    3.8780   -2.8889    0.0000 N   0  0  0  0  0  0  0  0  0  0  0  0
    4.5127   -0.3696    0.0000 N   0  0  0  0  0  0  0  0  0  0  0  0
    4.1028    1.0733    0.0000 N   0  0  0  0  0  0  0  0  0  0  0  0
   -5.4078    0.7020    0.0000 N   0  0  0  0  0  0  0  0  0  0  0  0
   -6.9044    0.6011    0.0000 N   0  0  0  0  0  0  0  0  0  0  0  0
    1.3788   -3.5989    0.0000 O   0  0  0  0  0  0  0  0  0  0  0  0
    0.7838    3.2492    0.0000 O   0  0  0  0  0  0  0  0  0  0  0  0
   -2.7600    1.4627    0.0000 O   0  0  0  0  0  0  0  0  0  0  0  0
    2.4632    6.8449    0.0000 H   0  0  0  0  0  0  0  0  0  0  0  0
    4.3160    5.8119    0.0000 H   0  0  0  0  0  0  0  0  0  0  0  0
    1.4302    4.9921    0.0000 H   0  0  0  0  0  0  0  0  0  0  0  0
  1 21  1  0
  2 28  1  0
  3 31  1  0
  4  5  2  0
  4  6  1  0
  5 12  1  0
  6 13  2  0
  7  8  1  0
  7 11  1  0
  8 11  1  0
  9 14  2  0
  9 15  1  0
 10 22  2  0
 10 28  1  0
 11 19  1  0
 12 17  2  0
 12 18  1  0
 13 17  1  0
 13 23  1  0
 14 16  1  0
 14 23  1  0
 15 24  2  3
 15 25  1  0
 16 20  1  0
 16 26  2  0
 17 31  1  0
 18 22  1  0
 18 27  2  0
 19 24  1  0
 19 29  2  0
 20 21  1  0
 20 30  2  0
 25 26  1  0
 27 28  1  0
 32  1  1  0
 33  1  1  0
 34  1  1  0
M  ISO  3  32   2  33   2  34   2
M  END
>  <BrandName>  (351) 


>  <Applicants>  (351) 
Bristol Myers Squibb

>  <CHEMBL_ID>  (351) 
nan

>  <Canonical_Smiles>  (351) 
[2H]C([2H])([2H])NC(=O)c1n[nH]c(=NC(=O)C2CC2)cc1Nc1cccc(-c2ncn(C)n2)c1OC

>  <Chirality>  (351) 
nan

>  <First_Approval>  (351) 
2022

>  <Phase>  (351) 
4.0

>  <SC_Patent>  (351) 
nan

>  <Synonyms>  (351) 
BMS-986165 | DEUCRAVACITINIB | SOTYKTU

>  <Withdrawn>  (351) 
{'', 'Study NCT06532136 in United States was Withdrawn during PHASE2 because This study is being closed due to sponsor withdrawal of funding and support'}

>  <Indications>  (351) 
On September 2022, FDA approved deucravacitinib to treat moderate-to-severe plaque psoriasis

>  <Type>  (351) 
nan

>  <targets_id>  (351) 
P29597

>  <Inchi>  (351) 
InChI=1S/C20H22N8O3/c1-21-20(30)16-14(9-15(25-26-16)24-19(29)11-7-8-11)23-13-6-4-5-12(17(13)31-3)18-22-10-28(2)27-18/h4-6,9-11H,7-8H2,1-3H3,(H,21,30)(H2,23,24,25,29)/i1D3

>  <stdInchikey>  (351) 
BZZKEPGENYLQSC-FIBGUPNXSA-N

>  <csid>  (351) 
72380005

>  <Links>  (351) 
|http://www.chemspider.com/Chemical-Structure.72380005.html|https://www.ebi.ac.uk/chembldb/compound/inspect/CHEMBL4435170|https://pubchem.ncbi.nlm.nih.gov/compound/134821691|https://go.drugbank.com/drugs/DB16650|https://www.guidetopharmacology.org/GRAC/LigandDisplayForward?10432|https://precision.fda.gov/uniisearch/srs/unii/N0A21N6RAU|https://www.bindingdb.org/bind/chemsearch/marvin/MolStructure.jsp?monomerid=50507816

>  <LinkName>  (351) 
|ChemSpider|ChEMBL|PubChem|DrugBank|Guide to Pharmacology|FDA SRS|BindingDB

>  <lig_pdb_ID>  (351) 


>  <pdb_IDs>  (351) 


>  <indicationDB>  (351) 


>  <uniprotId>  (351) 


>  <indicationG2P>  (351) 
None

>  <MW>  (351) 
425.2

>  <HBA>  (351) 
8

>  <HBD>  (351) 
3

>  <NRB>  (351) 
7

>  <TPSA>  (351) 
139.2

>  <LogP>  (351) 
1.2

>  <RoF>  (351) 
0

>  <Melting point>  (351) 
nan

>  <Targets>  (351) 
TYK2

>  <Kinase families>  (351) 
Tyr

>  <FDA_approved>  (351) 
Y

$$$$
Erdafitinib
     RDKit          2D

 33 36  0  0  0  0  0  0  0  0999 V2000
   -4.3196    6.0890    0.0000 C   0  0  0  0  0  0  0  0  0  0  0  0
   -4.2763    4.5897    0.0000 C   0  0  0  0  0  0  0  0  0  0  0  0
   -5.5532    3.8025    0.0000 C   0  0  0  0  0  0  0  0  0  0  0  0
   -2.9562    3.8774    0.0000 N   0  0  0  0  0  0  0  0  0  0  0  0
   -2.9130    2.3780    0.0000 C   0  0  0  0  0  0  0  0  0  0  0  0
   -1.5929    1.6658    0.0000 C   0  0  0  0  0  0  0  0  0  0  0  0
   -1.5497    0.1664    0.0000 N   0  0  0  0  0  0  0  0  0  0  0  0
   -0.2296   -0.5459    0.0000 C   0  0  0  0  0  0  0  0  0  0  0  0
   -0.1864   -2.0452    0.0000 C   0  0  0  0  0  0  0  0  0  0  0  0
    1.1338   -2.7575    0.0000 C   0  0  0  0  0  0  0  0  0  0  0  0
    2.4106   -1.9704    0.0000 C   0  0  0  0  0  0  0  0  0  0  0  0
    2.3674   -0.4710    0.0000 C   0  0  0  0  0  0  0  0  0  0  0  0
    1.0473    0.2413    0.0000 C   0  0  0  0  0  0  0  0  0  0  0  0
    3.6443    0.3161    0.0000 N   0  0  0  0  0  0  0  0  0  0  0  0
    4.9644   -0.3961    0.0000 C   0  0  0  0  0  0  0  0  0  0  0  0
    5.0076   -1.8955    0.0000 C   0  0  0  0  0  0  0  0  0  0  0  0
    3.7307   -2.6826    0.0000 N   0  0  0  0  0  0  0  0  0  0  0  0
    6.2413    0.3910    0.0000 C   0  0  0  0  0  0  0  0  0  0  0  0
    6.3551    1.8867    0.0000 C   0  0  0  0  0  0  0  0  0  0  0  0
    7.8127    2.2407    0.0000 N   0  0  0  0  0  0  0  0  0  0  0  0
    8.5998    0.9638    0.0000 N   0  0  0  0  0  0  0  0  0  0  0  0
    7.6286   -0.1794    0.0000 C   0  0  0  0  0  0  0  0  0  0  0  0
   10.0955    0.8500    0.0000 C   0  0  0  0  0  0  0  0  0  0  0  0
   -2.8266   -0.6207    0.0000 C   0  0  0  0  0  0  0  0  0  0  0  0
   -4.1467    0.0915    0.0000 C   0  0  0  0  0  0  0  0  0  0  0  0
   -5.4236   -0.6956    0.0000 C   0  0  0  0  0  0  0  0  0  0  0  0
   -5.3804   -2.1950    0.0000 C   0  0  0  0  0  0  0  0  0  0  0  0
   -4.0602   -2.9072    0.0000 C   0  0  0  0  0  0  0  0  0  0  0  0
   -2.7834   -2.1201    0.0000 C   0  0  0  0  0  0  0  0  0  0  0  0
   -4.0170   -4.4066    0.0000 O   0  0  0  0  0  0  0  0  0  0  0  0
   -5.2939   -5.1937    0.0000 C   0  0  0  0  0  0  0  0  0  0  0  0
   -6.7437    0.0167    0.0000 O   0  0  0  0  0  0  0  0  0  0  0  0
   -6.7869    1.5161    0.0000 C   0  0  0  0  0  0  0  0  0  0  0  0
  1  2  1  0
  2  3  1  0
  2  4  1  0
  4  5  1  0
  5  6  1  0
  6  7  1  0
  7  8  1  0
  8  9  2  0
  9 10  1  0
 10 11  2  0
 11 12  1  0
 12 13  2  0
 12 14  1  0
 14 15  2  0
 15 16  1  0
 16 17  2  0
 15 18  1  0
 18 19  1  0
 19 20  2  0
 20 21  1  0
 21 22  1  0
 21 23  1  0
  7 24  1  0
 24 25  2  0
 25 26  1  0
 26 27  2  0
 27 28  1  0
 28 29  2  0
 28 30  1  0
 30 31  1  0
 26 32  1  0
 32 33  1  0
 13  8  1  0
 17 11  1  0
 22 18  2  0
 29 24  1  0
M  END
>  <BrandName>  (352) 
Balversa

>  <Applicants>  (352) 
Janssen

>  <CHEMBL_ID>  (352) 
CHEMBL3545376

>  <Canonical_Smiles>  (352) 
CC(C)NCCN(c1ccc2c(c1)nc(cn2)c3cnn(c3)C)c4cc(cc(c4)OC)OC

>  <Chirality>  (352) 
Achiral Molecule

>  <First_Approval>  (352) 
2019

>  <Phase>  (352) 
4.0

>  <SC_Patent>  (352) 
US-8895601-B2

>  <Synonyms>  (352) 
BALVERSA | ERDAFITINIB | JNJ-42756493

>  <Withdrawn>  (352) 
{'', 'Study NCT05564416 in unknown country was Withdrawn during PHASE2 because Feasibility issues per Complete Sheet'}

>  <Indications>  (352) 
On april 2019, FDA approved erdafitinib to treat adult patients with locally advanced or metastatic bladder cancer

>  <Type>  (352) 
1

>  <targets_id>  (352) 
P11362

>  <Inchi>  (352) 
InChI=1S/C25H30N6O2/c1-17(2)26-8-9-31(20-10-21(32-4)13-22(11-20)33-5)19-6-7-23-24(12-19)29-25(15-27-23)18-14-28-30(3)16-18/h6-7,10-17,26H,8-9H2,1-5H3

>  <stdInchikey>  (352) 
OLAHOMJCDNXHFI-UHFFFAOYSA-N

>  <csid>  (352) 
35308353

>  <Links>  (352) 
|http://www.chemspider.com/Chemical-Structure.35308353.html|https://www.ebi.ac.uk/chembldb/compound/inspect/CHEMBL3545376|https://pubchem.ncbi.nlm.nih.gov/compound/67462786|https://go.drugbank.com/drugs/DB12147|https://www.rcsb.org/ligand/5SF|https://www.ebi.ac.uk/pdbe-srv/pdbechem/chemicalCompound/show/5SF|https://www.guidetopharmacology.org/GRAC/LigandDisplayForward?9039|https://zinc15.docking.org/substances/ZINC000168520308|https://precision.fda.gov/uniisearch/srs/unii/890E37NHMV|https://www.bindingdb.org/bind/chemsearch/marvin/MolStructure.jsp?monomerid=50525939

>  <LinkName>  (352) 
|ChemSpider|ChEMBL|PubChem|DrugBank|RCSB|PDBe|Guide to Pharmacology|ZINC|FDA SRS|BindingDB

>  <lig_pdb_ID>  (352) 
5SF

>  <pdb_IDs>  (352) 
5ew8

>  <indicationDB>  (352) 


>  <uniprotId>  (352) 


>  <indicationG2P>  (352) 
None

>  <MW>  (352) 
446.2

>  <HBA>  (352) 
8

>  <HBD>  (352) 
1

>  <NRB>  (352) 
9

>  <TPSA>  (352) 
77.3

>  <LogP>  (352) 
4.2

>  <RoF>  (352) 
0

>  <Melting point>  (352) 
nan

>  <Targets>  (352) 
FGFR1

>  <Kinase families>  (352) 
Tyr

>  <FDA_approved>  (352) 
Y

$$$$
Larotrectinib
     RDKit          2D

 31 35  0  0  0  0  0  0  0  0999 V2000
    6.6807    1.5444    0.0000 C   0  0  0  0  0  0  0  0  0  0  0  0
    7.1368    0.1154    0.0000 C   0  0  0  0  0  0  0  0  0  0  0  0
    6.1274   -0.9941    0.0000 C   0  0  0  0  0  0  0  0  0  0  0  0
    4.6618   -0.6747    0.0000 C   0  0  0  0  0  0  0  0  0  0  0  0
    4.2056    0.7543    0.0000 C   0  0  0  0  0  0  0  0  0  0  0  0
    5.2151    1.8638    0.0000 C   0  0  0  0  0  0  0  0  0  0  0  0
    4.7589    3.2928    0.0000 F   0  0  0  0  0  0  0  0  0  0  0  0
    3.6524   -1.7842    0.0000 C   0  0  0  0  0  0  0  0  0  0  0  0
    3.9567   -3.2530    0.0000 C   0  0  0  0  0  0  0  0  0  0  0  0
    2.6538   -3.9963    0.0000 C   0  0  0  0  0  0  0  0  0  0  0  0
    1.5442   -2.9869    0.0000 C   0  0  0  0  0  0  0  0  0  0  0  0
    2.1614   -1.6197    0.0000 N   0  0  0  0  0  0  0  0  0  0  0  0
    1.4181   -0.3168    0.0000 C   0  0  0  0  0  0  0  0  0  0  0  0
    2.1748    0.9783    0.0000 C   0  0  0  0  0  0  0  0  0  0  0  0
    1.4315    2.2812    0.0000 C   0  0  0  0  0  0  0  0  0  0  0  0
   -0.0684    2.2890    0.0000 N   0  0  0  0  0  0  0  0  0  0  0  0
   -0.8251    0.9938    0.0000 C   0  0  0  0  0  0  0  0  0  0  0  0
   -0.0819   -0.3091    0.0000 N   0  0  0  0  0  0  0  0  0  0  0  0
   -2.2907    1.3133    0.0000 C   0  0  0  0  0  0  0  0  0  0  0  0
   -2.4398    2.8058    0.0000 C   0  0  0  0  0  0  0  0  0  0  0  0
   -1.0664    3.4088    0.0000 N   0  0  0  0  0  0  0  0  0  0  0  0
   -3.4106    0.3153    0.0000 N   0  0  0  0  0  0  0  0  0  0  0  0
   -4.8348    0.7862    0.0000 C   0  0  0  0  0  0  0  0  0  0  0  0
   -5.1391    2.2550    0.0000 O   0  0  0  0  0  0  0  0  0  0  0  0
   -5.9547   -0.2117    0.0000 N   0  0  0  0  0  0  0  0  0  0  0  0
   -5.8056   -1.7043    0.0000 C   0  0  0  0  0  0  0  0  0  0  0  0
   -7.1790   -2.3073    0.0000 C   0  0  0  0  0  0  0  0  0  0  0  0
   -8.1770   -1.1874    0.0000 C   0  0  0  0  0  0  0  0  0  0  0  0
   -7.4203    0.1077    0.0000 C   0  0  0  0  0  0  0  0  0  0  0  0
   -9.6695   -1.3365    0.0000 O   0  0  0  0  0  0  0  0  0  0  0  0
    6.5836   -2.4231    0.0000 F   0  0  0  0  0  0  0  0  0  0  0  0
  1  2  2  0
  2  3  1  0
  3  4  2  0
  4  5  1  0
  5  6  2  0
  6  7  1  0
  8  4  1  1
  8  9  1  0
  9 10  1  0
 10 11  1  0
 11 12  1  0
 12 13  1  0
 13 14  1  0
 14 15  2  0
 15 16  1  0
 16 17  1  0
 17 18  1  0
 17 19  2  0
 19 20  1  0
 20 21  2  0
 19 22  1  0
 22 23  1  0
 23 24  2  0
 23 25  1  0
 25 26  1  0
 26 27  1  0
 27 28  1  0
 28 29  1  0
 28 30  1  6
  3 31  1  0
  6  1  1  0
 12  8  1  0
 18 13  2  0
 21 16  1  0
 29 25  1  0
M  END
>  <BrandName>  (353) 
Vitrakvi

>  <Applicants>  (353) 
Array BioPharma

>  <CHEMBL_ID>  (353) 
CHEMBL3889654

>  <Canonical_Smiles>  (353) 
c1cc(c(cc1F)[C@H]2CCCN2c3ccn4c(n3)c(cn4)NC(=O)N5CC[C@@H](C5)O)F

>  <Chirality>  (353) 
Single Stereoisomer

>  <First_Approval>  (353) 
2018

>  <Phase>  (353) 
4.0

>  <SC_Patent>  (353) 
US-8513263-B2

>  <Synonyms>  (353) 
ARRY-470 | BAY-2757556 | BAY2757556 | LAROTRECTINIB | LOXO-101

>  <Withdrawn>  (353) 
{''}

>  <Indications>  (353) 
On november 26, 2018, the FDA approved larotrectinib to treat patients whose cancers have a specific genetic feature (biomarker)

>  <Type>  (353) 
nan

>  <targets_id>  (353) 
P04629|Q16620|Q16288

>  <Inchi>  (353) 
InChI=1S/C21H22F2N6O2/c22-13-3-4-16(23)15(10-13)18-2-1-7-28(18)19-6-9-29-20(26-19)17(11-24-29)25-21(31)27-8-5-14(30)12-27/h3-4,6,9-11,14,18,30H,1-2,5,7-8,12H2,(H,25,31)/t14-,18+/m0/s1

>  <stdInchikey>  (353) 
NYNZQNWKBKUAII-KBXCAEBGSA-N

>  <csid>  (353) 
44210503

>  <Links>  (353) 
|http://www.chemspider.com/Chemical-Structure.44210503.html|https://www.ebi.ac.uk/chembldb/compound/inspect/CHEMBL3889654|https://pubchem.ncbi.nlm.nih.gov/compound/46188928|https://go.drugbank.com/drugs/DB14723|https://www.guidetopharmacology.org/GRAC/LigandDisplayForward?8909|https://zinc15.docking.org/substances/ZINC000118399834|https://precision.fda.gov/uniisearch/srs/unii/PF9462I9HX|https://www.bindingdb.org/bind/chemsearch/marvin/MolStructure.jsp?monomerid=136597

>  <LinkName>  (353) 
|ChemSpider|ChEMBL|PubChem|DrugBank|Guide to Pharmacology|ZINC|FDA SRS|BindingDB

>  <lig_pdb_ID>  (353) 


>  <pdb_IDs>  (353) 


>  <indicationDB>  (353) 


>  <uniprotId>  (353) 


>  <indicationG2P>  (353) 
None

>  <MW>  (353) 
428.2

>  <HBA>  (353) 
6

>  <HBD>  (353) 
2

>  <NRB>  (353) 
3

>  <TPSA>  (353) 
86.0

>  <LogP>  (353) 
2.9

>  <RoF>  (353) 
0

>  <Melting point>  (353) 
nan

>  <Targets>  (353) 
NTRK1; NTRK2; NTRK3

>  <Kinase families>  (353) 
Tyr

>  <FDA_approved>  (353) 
Y

$$$$
Sunitinib
     RDKit          2D

 29 31  0  0  0  0  0  0  0  0999 V2000
  -10.2315    0.8288    0.0000 C   0  0  0  0  0  0  0  0  0  0  0  0
   -8.8053    1.2934    0.0000 C   0  0  0  0  0  0  0  0  0  0  0  0
   -7.6898    0.2905    0.0000 N   0  0  0  0  0  0  0  0  0  0  0  0
   -8.0006   -1.1769    0.0000 C   0  0  0  0  0  0  0  0  0  0  0  0
   -9.4268   -1.6415    0.0000 C   0  0  0  0  0  0  0  0  0  0  0  0
   -6.2635    0.7551    0.0000 C   0  0  0  0  0  0  0  0  0  0  0  0
   -5.1481   -0.2477    0.0000 C   0  0  0  0  0  0  0  0  0  0  0  0
   -3.7218    0.2168    0.0000 N   0  0  0  0  0  0  0  0  0  0  0  0
   -2.6064   -0.7860    0.0000 C   0  0  0  0  0  0  0  0  0  0  0  0
   -2.9171   -2.2535    0.0000 O   0  0  0  0  0  0  0  0  0  0  0  0
   -1.1801   -0.3214    0.0000 C   0  0  0  0  0  0  0  0  0  0  0  0
    0.0341   -1.2022    0.0000 C   0  0  0  0  0  0  0  0  0  0  0  0
    1.2469   -0.3196    0.0000 C   0  0  0  0  0  0  0  0  0  0  0  0
    0.7823    1.1066    0.0000 N   0  0  0  0  0  0  0  0  0  0  0  0
   -0.7177    1.1055    0.0000 C   0  0  0  0  0  0  0  0  0  0  0  0
   -1.6003    2.3184    0.0000 C   0  0  0  0  0  0  0  0  0  0  0  0
    2.6738   -0.7821    0.0000 C   0  0  0  0  0  0  0  0  0  0  0  0
    3.7878    0.2225    0.0000 C   0  0  0  0  0  0  0  0  0  0  0  0
    5.2553   -0.0883    0.0000 C   0  0  0  0  0  0  0  0  0  0  0  0
    6.0062   -1.3868    0.0000 C   0  0  0  0  0  0  0  0  0  0  0  0
    7.5062   -1.3856    0.0000 C   0  0  0  0  0  0  0  0  0  0  0  0
    8.2553   -0.0860    0.0000 C   0  0  0  0  0  0  0  0  0  0  0  0
    7.5043    1.2124    0.0000 C   0  0  0  0  0  0  0  0  0  0  0  0
    6.0043    1.2113    0.0000 C   0  0  0  0  0  0  0  0  0  0  0  0
    4.9998    2.3253    0.0000 N   0  0  0  0  0  0  0  0  0  0  0  0
    3.6299    1.7141    0.0000 C   0  0  0  0  0  0  0  0  0  0  0  0
    2.3303    2.4632    0.0000 O   0  0  0  0  0  0  0  0  0  0  0  0
    8.2572   -2.6841    0.0000 F   0  0  0  0  0  0  0  0  0  0  0  0
    0.0352   -2.7022    0.0000 C   0  0  0  0  0  0  0  0  0  0  0  0
  1  2  1  0
  2  3  1  0
  3  4  1  0
  4  5  1  0
  3  6  1  0
  6  7  1  0
  7  8  1  0
  8  9  1  0
  9 10  2  0
  9 11  1  0
 11 12  1  0
 12 13  2  0
 13 14  1  0
 14 15  1  0
 15 16  1  0
 13 17  1  0
 17 18  2  0
 18 19  1  0
 19 20  2  0
 20 21  1  0
 21 22  2  0
 22 23  1  0
 23 24  2  0
 24 25  1  0
 25 26  1  0
 26 27  2  0
 21 28  1  0
 12 29  1  0
 15 11  2  0
 26 18  1  0
 24 19  1  0
M  END
>  <BrandName>  (354) 
Sunitinib accord;Sutent

>  <Applicants>  (354) 
Cp Pharmaceuticals

>  <CHEMBL_ID>  (354) 
CHEMBL535

>  <Canonical_Smiles>  (354) 
CCN(CC)CCNC(=O)c1c(c([nH]c1C)/C=C\2/c3cc(ccc3NC2=O)F)C

>  <Chirality>  (354) 
Achiral Molecule

>  <First_Approval>  (354) 
2006

>  <Phase>  (354) 
4.0

>  <SC_Patent>  (354) 
nan

>  <Synonyms>  (354) 
NSC-736511 | NSC-750690 | SU-011248 | SU-11248 | SU011248 | SUNITINIB | SUNITINIB ACCORD | SUTENT

>  <Withdrawn>  (354) 
{'', 'Study NCT03275558 in Hong Kong was Withdrawn during PHASE1 because Study halted prior to enrollment of first participant (It has been determined on 2018 May 15 that the NCT03275558 study will be stopped by sponsor decision)', 'Study NCT03323710 in Poland was Withdrawn during PHASE2 because Poor patient recruitment', 'Study NCT01441388 in unknown country was Withdrawn during PHASE1 because Business/Operational issues', 'Study NCT02400385 in United States was Withdrawn during PHASE2 because With recent advances in immunotherapy scientific question not significant', 'Study NCT00936832 in France was Withdrawn during PHASE2 because because the sunitinib showed futility in anotehr trial', 'Study NCT00556205 in unknown country was Withdrawn during PHASE2 because Toxicity of combination from other trials', 'Study NCT01070186 in unknown country was Withdrawn during PHASE2 because No participants were enrolled', 'Study NCT03035630 in United States was Withdrawn during PHASE2 because Principal investigator left lead institution and efforts to open the protocol at another institution were not successful', 'Study NCT00748163 in unknown country was Withdrawn during PHASE2 because Study has been abandoned for lack of available funding', 'Study NCT00521092 in unknown country was Withdrawn during PHASE2 because No participants enrolled'}

>  <Indications>  (354) 
For the treatment of advanced renal cell carcinoma as well as the treatment of gastrointestinal stromal tumor after disease progression on or intolerance to imatinib mesylate.

>  <Type>  (354) 
1

>  <targets_id>  (354) 
P09619|P17948|P10721|P35968|P35916|P36888|P07333|P16234

>  <Inchi>  (354) 
InChI=1S/C22H27FN4O2/c1-5-27(6-2)10-9-24-22(29)20-13(3)19(25-14(20)4)12-17-16-11-15(23)7-8-18(16)26-21(17)28/h7-8,11-12,25H,5-6,9-10H2,1-4H3,(H,24,29)(H,26,28)/b17-12-

>  <stdInchikey>  (354) 
WINHZLLDWRZWRT-ATVHPVEESA-N

>  <csid>  (354) 
4486264

>  <Links>  (354) 
|http://www.chemspider.com/Chemical-Structure.4486264.html|https://www.ebi.ac.uk/chembldb/compound/inspect/CHEMBL535|https://pubchem.ncbi.nlm.nih.gov/compound/5329102|https://go.drugbank.com/drugs/DB01268|https://www.rcsb.org/ligand/B49|https://www.ebi.ac.uk/pdbe-srv/pdbechem/chemicalCompound/show/B49|https://www.guidetopharmacology.org/GRAC/LigandDisplayForward?5713|https://zinc15.docking.org/substances/ZINC000003964325|https://precision.fda.gov/uniisearch/srs/unii/V99T50803M|https://www.bindingdb.org/bind/chemsearch/marvin/MolStructure.jsp?monomerid=4814

>  <LinkName>  (354) 
|ChemSpider|ChEMBL|PubChem|DrugBank|RCSB|PDBe|Guide to Pharmacology|ZINC|FDA SRS|BindingDB

>  <lig_pdb_ID>  (354) 
B49

>  <pdb_IDs>  (354) 
2y7j 3g0e 3g0f 3miy 3ti1 4agd 4ks8 4qmz 6jok 6m11 6nfy 6nfz 6ng0 6v0x

>  <indicationDB>  (354) 


>  <uniprotId>  (354) 


>  <indicationG2P>  (354) 
None

>  <MW>  (354) 
398.2

>  <HBA>  (354) 
3

>  <HBD>  (354) 
3

>  <NRB>  (354) 
7

>  <TPSA>  (354) 
77.2

>  <LogP>  (354) 
3.3

>  <RoF>  (354) 
0

>  <Melting point>  (354) 
nan

>  <Targets>  (354) 
PDGFRB; FLT1; KIT; KDR; FLT4; FLT3; CSF1R; PDGFRA

>  <Kinase families>  (354) 
Tyr

>  <FDA_approved>  (354) 
Y

$$$$
Masitinib
     RDKit          2D

 36 40  0  0  0  0  0  0  0  0999 V2000
   -7.7817    1.8752    0.0000 C   0  0  0  0  0  0  0  0  0  0  0  0
   -6.3006    2.1122    0.0000 C   0  0  0  0  0  0  0  0  0  0  0  0
   -5.7653    3.5134    0.0000 C   0  0  0  0  0  0  0  0  0  0  0  0
   -4.2841    3.7505    0.0000 C   0  0  0  0  0  0  0  0  0  0  0  0
   -3.3383    2.5863    0.0000 C   0  0  0  0  0  0  0  0  0  0  0  0
   -3.8736    1.1850    0.0000 C   0  0  0  0  0  0  0  0  0  0  0  0
   -5.3547    0.9480    0.0000 C   0  0  0  0  0  0  0  0  0  0  0  0
   -5.8900   -0.4532    0.0000 N   0  0  0  0  0  0  0  0  0  0  0  0
   -4.9442   -1.6174    0.0000 C   0  0  0  0  0  0  0  0  0  0  0  0
   -3.4464   -1.5365    0.0000 N   0  0  0  0  0  0  0  0  0  0  0  0
   -2.9066   -2.9360    0.0000 C   0  0  0  0  0  0  0  0  0  0  0  0
   -4.0708   -3.8819    0.0000 C   0  0  0  0  0  0  0  0  0  0  0  0
   -5.3301   -3.0669    0.0000 S   0  0  0  0  0  0  0  0  0  0  0  0
   -1.4571   -3.3220    0.0000 C   0  0  0  0  0  0  0  0  0  0  0  0
   -1.0665   -4.7702    0.0000 C   0  0  0  0  0  0  0  0  0  0  0  0
    0.3830   -5.1561    0.0000 C   0  0  0  0  0  0  0  0  0  0  0  0
    1.4419   -4.0938    0.0000 C   0  0  0  0  0  0  0  0  0  0  0  0
    1.0514   -2.6455    0.0000 N   0  0  0  0  0  0  0  0  0  0  0  0
   -0.3981   -2.2596    0.0000 C   0  0  0  0  0  0  0  0  0  0  0  0
   -1.8571    2.8233    0.0000 N   0  0  0  0  0  0  0  0  0  0  0  0
   -0.9113    1.6591    0.0000 C   0  0  0  0  0  0  0  0  0  0  0  0
   -1.4466    0.2578    0.0000 O   0  0  0  0  0  0  0  0  0  0  0  0
    0.5699    1.8961    0.0000 C   0  0  0  0  0  0  0  0  0  0  0  0
    1.5157    0.7319    0.0000 C   0  0  0  0  0  0  0  0  0  0  0  0
    2.9969    0.9689    0.0000 C   0  0  0  0  0  0  0  0  0  0  0  0
    3.5322    2.3701    0.0000 C   0  0  0  0  0  0  0  0  0  0  0  0
    2.5864    3.5343    0.0000 C   0  0  0  0  0  0  0  0  0  0  0  0
    1.1052    3.2973    0.0000 C   0  0  0  0  0  0  0  0  0  0  0  0
    5.0134    2.6071    0.0000 C   0  0  0  0  0  0  0  0  0  0  0  0
    5.9592    1.4429    0.0000 N   0  0  0  0  0  0  0  0  0  0  0  0
    5.4239    0.0417    0.0000 C   0  0  0  0  0  0  0  0  0  0  0  0
    6.3697   -1.1225    0.0000 C   0  0  0  0  0  0  0  0  0  0  0  0
    7.8509   -0.8855    0.0000 N   0  0  0  0  0  0  0  0  0  0  0  0
    8.3862    0.5157    0.0000 C   0  0  0  0  0  0  0  0  0  0  0  0
    7.4404    1.6800    0.0000 C   0  0  0  0  0  0  0  0  0  0  0  0
    8.7967   -2.0497    0.0000 C   0  0  0  0  0  0  0  0  0  0  0  0
  1  2  1  0
  2  3  2  0
  3  4  1  0
  4  5  2  0
  5  6  1  0
  6  7  2  0
  7  8  1  0
  8  9  1  0
  9 10  2  0
 10 11  1  0
 11 12  2  0
 12 13  1  0
 11 14  1  0
 14 15  2  0
 15 16  1  0
 16 17  2  0
 17 18  1  0
 18 19  2  0
  5 20  1  0
 20 21  1  0
 21 22  2  0
 21 23  1  0
 23 24  2  0
 24 25  1  0
 25 26  2  0
 26 27  1  0
 27 28  2  0
 26 29  1  0
 29 30  1  0
 30 31  1  0
 31 32  1  0
 32 33  1  0
 33 34  1  0
 34 35  1  0
 33 36  1  0
  7  2  1  0
 13  9  1  0
 19 14  1  0
 28 23  1  0
 35 30  1  0
M  END
>  <BrandName>  (355) 
Kinavet;Masivet

>  <Applicants>  (355) 
AB Science

>  <CHEMBL_ID>  (355) 
CHEMBL1908391

>  <Canonical_Smiles>  (355) 
Cc1ccc(cc1Nc2nc(cs2)c3cccnc3)NC(=O)c4ccc(cc4)CN5CCN(CC5)C

>  <Chirality>  (355) 
Achiral Molecule

>  <First_Approval>  (355) 
nan

>  <Phase>  (355) 
4.0

>  <SC_Patent>  (355) 
nan

>  <Synonyms>  (355) 
AB-1010 | AB1010 | KINAVET | MASICAN | MASITINIB | MASIVET | MASIVIERA

>  <Withdrawn>  (355) 
{''}

>  <Indications>  (355) 
nan

>  <Type>  (355) 
nan

>  <targets_id>  (355) 
P10721|P16234|P09619|P11362|P21802|P22607

>  <Inchi>  (355) 
InChI=1S/C28H30N6OS/c1-20-5-10-24(16-25(20)31-28-32-26(19-36-28)23-4-3-11-29-17-23)30-27(35)22-8-6-21(7-9-22)18-34-14-12-33(2)13-15-34/h3-11,16-17,19H,12-15,18H2,1-2H3,(H,30,35)(H,31,32)

>  <stdInchikey>  (355) 
WJEOLQLKVOPQFV-UHFFFAOYSA-N

>  <csid>  (355) 
8250179

>  <Links>  (355) 
|http://www.chemspider.com/Chemical-Structure.8250179.html|https://www.ebi.ac.uk/chembldb/compound/inspect/CHEMBL1908391|https://pubchem.ncbi.nlm.nih.gov/compound/10074640|https://go.drugbank.com/drugs/DB11526|https://www.rcsb.org/ligand/G65|https://www.ebi.ac.uk/pdbe-srv/pdbechem/chemicalCompound/show/G65|https://www.guidetopharmacology.org/GRAC/LigandDisplayForward?5656|https://zinc15.docking.org/substances/ZINC000034177219|https://precision.fda.gov/uniisearch/srs/unii/M59NC4E26P|https://www.bindingdb.org/bind/chemsearch/marvin/MolStructure.jsp?monomerid=50355495

>  <LinkName>  (355) 
|ChemSpider|ChEMBL|PubChem|DrugBank|RCSB|PDBe|Guide to Pharmacology|ZINC|FDA SRS|BindingDB

>  <lig_pdb_ID>  (355) 
G65

>  <pdb_IDs>  (355) 
5mql 7ju7 7tvx

>  <indicationDB>  (355) 


>  <uniprotId>  (355) 


>  <indicationG2P>  (355) 
None

>  <MW>  (355) 
498.2

>  <HBA>  (355) 
7

>  <HBD>  (355) 
2

>  <NRB>  (355) 
7

>  <TPSA>  (355) 
73.4

>  <LogP>  (355) 
5.3

>  <RoF>  (355) 
1

>  <Melting point>  (355) 
nan

>  <Targets>  (355) 
KIT; PDGFRA; PDGFRB; FGFR1; FGFR2; FGFR3

>  <Kinase families>  (355) 
Tyr

>  <FDA_approved>  (355) 
Y

$$$$
Midostaurin
     RDKit          2D

 43 51  0  0  0  0  0  0  0  0999 V2000
    1.0953   -2.7367    0.0000 C   0  0  0  0  0  0  0  0  0  0  0  0
    0.2511   -1.4969    0.0000 C   0  0  0  0  0  0  0  0  0  0  0  0
    1.7547   -1.5053    0.0000 C   0  0  0  0  0  0  0  0  0  0  0  0
    2.6004   -0.2665    0.0000 C   0  0  0  0  0  0  0  0  0  0  0  0
    1.9504    1.0854    0.0000 C   0  0  0  0  0  0  0  0  0  0  0  0
    0.4547    1.1983    0.0000 C   0  0  0  0  0  0  0  0  0  0  0  0
    1.0019   -0.1983    0.0000 O   0  0  0  0  0  0  0  0  0  0  0  0
   -0.9784    1.6413    0.0000 N   0  0  0  0  0  0  0  0  0  0  0  0
   -1.3982    3.0814    0.0000 C   0  0  0  0  0  0  0  0  0  0  0  0
   -0.6089    4.3569    0.0000 C   0  0  0  0  0  0  0  0  0  0  0  0
   -1.3190    5.6783    0.0000 C   0  0  0  0  0  0  0  0  0  0  0  0
   -2.8183    5.7240    0.0000 C   0  0  0  0  0  0  0  0  0  0  0  0
   -3.6075    4.4485    0.0000 C   0  0  0  0  0  0  0  0  0  0  0  0
   -2.8975    3.1271    0.0000 C   0  0  0  0  0  0  0  0  0  0  0  0
   -3.4043    1.7154    0.0000 C   0  0  0  0  0  0  0  0  0  0  0  0
   -2.2183    0.7971    0.0000 C   0  0  0  0  0  0  0  0  0  0  0  0
   -2.3313   -0.6987    0.0000 C   0  0  0  0  0  0  0  0  0  0  0  0
   -1.2323   -1.7196    0.0000 N   0  0  0  0  0  0  0  0  0  0  0  0
   -1.8636   -3.0802    0.0000 C   0  0  0  0  0  0  0  0  0  0  0  0
   -1.2749   -4.4599    0.0000 C   0  0  0  0  0  0  0  0  0  0  0  0
   -2.1753   -5.6595    0.0000 C   0  0  0  0  0  0  0  0  0  0  0  0
   -3.6645   -5.4796    0.0000 C   0  0  0  0  0  0  0  0  0  0  0  0
   -4.2532   -4.0999    0.0000 C   0  0  0  0  0  0  0  0  0  0  0  0
   -3.3528   -2.9003    0.0000 C   0  0  0  0  0  0  0  0  0  0  0  0
   -3.6418   -1.4284    0.0000 C   0  0  0  0  0  0  0  0  0  0  0  0
   -4.8692   -0.4304    0.0000 C   0  0  0  0  0  0  0  0  0  0  0  0
   -4.7562    1.0653    0.0000 C   0  0  0  0  0  0  0  0  0  0  0  0
   -6.1438    1.6350    0.0000 C   0  0  0  0  0  0  0  0  0  0  0  0
   -6.4986    3.0924    0.0000 O   0  0  0  0  0  0  0  0  0  0  0  0
   -7.1144    0.4913    0.0000 N   0  0  0  0  0  0  0  0  0  0  0  0
   -6.3266   -0.7852    0.0000 C   0  0  0  0  0  0  0  0  0  0  0  0
    4.0962   -0.3794    0.0000 N   0  0  0  0  0  0  0  0  0  0  0  0
    4.7462   -1.7313    0.0000 C   0  0  0  0  0  0  0  0  0  0  0  0
    4.9419    0.8594    0.0000 C   0  0  0  0  0  0  0  0  0  0  0  0
    4.2919    2.2112    0.0000 O   0  0  0  0  0  0  0  0  0  0  0  0
    6.4376    0.7464    0.0000 C   0  0  0  0  0  0  0  0  0  0  0  0
    7.0877   -0.6054    0.0000 C   0  0  0  0  0  0  0  0  0  0  0  0
    8.5834   -0.7184    0.0000 C   0  0  0  0  0  0  0  0  0  0  0  0
    9.4291    0.5205    0.0000 C   0  0  0  0  0  0  0  0  0  0  0  0
    8.7791    1.8723    0.0000 C   0  0  0  0  0  0  0  0  0  0  0  0
    7.2833    1.9853    0.0000 C   0  0  0  0  0  0  0  0  0  0  0  0
    2.4048   -2.8572    0.0000 O   0  0  0  0  0  0  0  0  0  0  0  0
    1.5590   -4.0960    0.0000 C   0  0  0  0  0  0  0  0  0  0  0  0
  2  1  1  6
  2  3  1  0
  3  4  1  0
  4  5  1  0
  6  5  1  1
  6  7  1  0
  6  8  1  0
  8  9  1  0
  9 10  2  0
 10 11  1  0
 11 12  2  0
 12 13  1  0
 13 14  2  0
 14 15  1  0
 15 16  2  0
 16 17  1  0
 17 18  1  0
 18 19  1  0
 19 20  2  0
 20 21  1  0
 21 22  2  0
 22 23  1  0
 23 24  2  0
 24 25  1  0
 25 26  1  0
 26 27  2  0
 27 28  1  0
 28 29  2  0
 28 30  1  0
 30 31  1  0
  4 32  1  1
 32 33  1  0
 32 34  1  0
 34 35  2  0
 34 36  1  0
 36 37  2  0
 37 38  1  0
 38 39  2  0
 39 40  1  0
 40 41  2  0
  3 42  1  1
 42 43  1  0
  7  2  1  0
 18  2  1  0
 16  8  1  0
 14  9  1  0
 27 15  1  0
 25 17  2  0
 24 19  1  0
 31 26  1  0
 41 36  1  0
M  END
>  <BrandName>  (356) 
Rydapt

>  <Applicants>  (356) 
Novartis Pharmaceuticals Corp

>  <CHEMBL_ID>  (356) 
CHEMBL608533

>  <Canonical_Smiles>  (356) 
C[C@@]12[C@@H]([C@@H](C[C@@H](O1)n3c4ccccc4c5c3c6n2c7ccccc7c6c8c5C(=O)NC8)N(C)C(=O)c9ccccc9)OC

>  <Chirality>  (356) 
Single Stereoisomer

>  <First_Approval>  (356) 
2017

>  <Phase>  (356) 
4.0

>  <SC_Patent>  (356) 
US-7973031-B2

>  <Synonyms>  (356) 
CGP 41251 | CGP-41251 | MIDOSTAURIN | MIDOSTAURINA | MIDOSTAURINE | NSC-656576 | NVP-PKC412 | PKC 412 | PKC-412 | RYDAPT

>  <Withdrawn>  (356) 
{'', 'Study NCT02723435 in unknown country was Withdrawn during PHASE2 because Logistical and administrative issues', 'Study NCT04982354 in United States was Withdrawn during PHASE1 because Could not accrue', 'Study NCT03207334 in United States was Withdrawn during PHASE2 because Insufficient funding', 'Study NCT03760445 in unknown country was Withdrawn during PHASE1 because It was determined that the study design may not be optimal given the changing AML treatment landscape'}

>  <Indications>  (356) 
On april 28 , 2017, the FDA approved midostaurin to  treat acute myeloid leukemia

>  <Type>  (356) 
nan

>  <targets_id>  (356) 
nan

>  <Inchi>  (356) 
InChI=1S/C35H30N4O4/c1-35-32(42-3)25(37(2)34(41)19-11-5-4-6-12-19)17-26(43-35)38-23-15-9-7-13-20(23)28-29-22(18-36-33(29)40)27-21-14-8-10-16-24(21)39(35)31(27)30(28)38/h4-16,25-26,32H,17-18H2,1-3H3,(H,36,40)/t25-,26-,32-,35+/m1/s1

>  <stdInchikey>  (356) 
BMGQWWVMWDBQGC-IIFHNQTCSA-N

>  <csid>  (356) 
8005258

>  <Links>  (356) 
|http://www.chemspider.com/Chemical-Structure.8005258.html|https://www.ebi.ac.uk/chembldb/compound/inspect/CHEMBL608533|https://pubchem.ncbi.nlm.nih.gov/compound/9829523|https://go.drugbank.com/drugs/DB06595|https://www.rcsb.org/ligand/2K2|https://www.ebi.ac.uk/pdbe-srv/pdbechem/chemicalCompound/show/2K2|https://www.guidetopharmacology.org/GRAC/LigandDisplayForward?5702|https://zinc15.docking.org/substances/ZINC000100013130|https://precision.fda.gov/uniisearch/srs/unii/ID912S5VON|https://www.bindingdb.org/bind/chemsearch/marvin/MolStructure.jsp?monomerid=50326053

>  <LinkName>  (356) 
|ChemSpider|ChEMBL|PubChem|DrugBank|RCSB|PDBe|Guide to Pharmacology|ZINC|FDA SRS|BindingDB

>  <lig_pdb_ID>  (356) 
2K2

>  <pdb_IDs>  (356) 
4nct

>  <indicationDB>  (356) 


>  <uniprotId>  (356) 


>  <indicationG2P>  (356) 
None

>  <MW>  (356) 
570.2

>  <HBA>  (356) 
6

>  <HBD>  (356) 
1

>  <NRB>  (356) 
3

>  <TPSA>  (356) 
77.7

>  <LogP>  (356) 
5.9

>  <RoF>  (356) 
2

>  <Melting point>  (356) 
235-260

>  <Targets>  (356) 
nan

>  <Kinase families>  (356) 


>  <FDA_approved>  (356) 
Y

$$$$
Mobocertinib
     RDKit          2D

 43 46  0  0  0  0  0  0  0  0999 V2000
    4.2460   -4.5734    0.0000 C   0  0  0  0  0  0  0  0  0  0  0  0
    3.0263   -3.7002    0.0000 C   0  0  0  0  0  0  0  0  0  0  0  0
    3.1727   -2.2074    0.0000 C   0  0  0  0  0  0  0  0  0  0  0  0
    4.2162   -1.8804    0.0000 O   0  0  0  0  0  0  0  0  0  0  0  0
    1.9530   -1.3342    0.0000 N   0  0  0  0  0  0  0  0  0  0  0  0
    2.0994    0.1587    0.0000 C   0  0  0  0  0  0  0  0  0  0  0  0
    0.8797    1.0318    0.0000 C   0  0  0  0  0  0  0  0  0  0  0  0
    1.0261    2.5247    0.0000 C   0  0  0  0  0  0  0  0  0  0  0  0
   -0.1936    3.3978    0.0000 N   0  0  0  0  0  0  0  0  0  0  0  0
   -1.5596    2.7782    0.0000 C   0  0  0  0  0  0  0  0  0  0  0  0
   -2.7792    3.6513    0.0000 N   0  0  0  0  0  0  0  0  0  0  0  0
   -4.1453    3.0317    0.0000 C   0  0  0  0  0  0  0  0  0  0  0  0
   -4.2916    1.5388    0.0000 C   0  0  0  0  0  0  0  0  0  0  0  0
   -5.6576    0.9192    0.0000 C   0  0  0  0  0  0  0  0  0  0  0  0
   -5.8040   -0.5737    0.0000 O   0  0  0  0  0  0  0  0  0  0  0  0
   -6.8773    1.7923    0.0000 O   0  0  0  0  0  0  0  0  0  0  0  0
   -8.2433    1.1727    0.0000 C   0  0  0  0  0  0  0  0  0  0  0  0
   -9.4630    2.0458    0.0000 C   0  0  0  0  0  0  0  0  0  0  0  0
   -8.3897   -0.3202    0.0000 C   0  0  0  0  0  0  0  0  0  0  0  0
   -3.0720    0.6657    0.0000 C   0  0  0  0  0  0  0  0  0  0  0  0
   -3.2183   -0.8272    0.0000 C   0  0  0  0  0  0  0  0  0  0  0  0
   -4.5121   -1.5862    0.0000 C   0  0  0  0  0  0  0  0  0  0  0  0
   -4.1900   -3.0512    0.0000 N   0  0  0  0  0  0  0  0  0  0  0  0
   -5.1858   -4.1730    0.0000 C   0  0  0  0  0  0  0  0  0  0  0  0
   -2.6971   -3.1976    0.0000 C   0  0  0  0  0  0  0  0  0  0  0  0
   -1.8070   -4.4049    0.0000 C   0  0  0  0  0  0  0  0  0  0  0  0
   -0.3163   -4.2377    0.0000 C   0  0  0  0  0  0  0  0  0  0  0  0
    0.2842   -2.8632    0.0000 C   0  0  0  0  0  0  0  0  0  0  0  0
   -0.6060   -1.6558    0.0000 C   0  0  0  0  0  0  0  0  0  0  0  0
   -2.0966   -1.8231    0.0000 C   0  0  0  0  0  0  0  0  0  0  0  0
   -1.7059    1.2853    0.0000 N   0  0  0  0  0  0  0  0  0  0  0  0
    2.3921    3.1443    0.0000 C   0  0  0  0  0  0  0  0  0  0  0  0
    2.5385    4.6372    0.0000 O   0  0  0  0  0  0  0  0  0  0  0  0
    3.9045    5.2569    0.0000 C   0  0  0  0  0  0  0  0  0  0  0  0
    3.6118    2.2712    0.0000 C   0  0  0  0  0  0  0  0  0  0  0  0
    3.4654    0.7783    0.0000 C   0  0  0  0  0  0  0  0  0  0  0  0
    4.6851   -0.0948    0.0000 N   0  0  0  0  0  0  0  0  0  0  0  0
    4.7118   -1.1880    0.0000 C   0  0  0  0  0  0  0  0  0  0  0  0
    6.0511    0.5248    0.0000 C   0  0  0  0  0  0  0  0  0  0  0  0
    7.2708   -0.3483    0.0000 C   0  0  0  0  0  0  0  0  0  0  0  0
    8.6368    0.2713    0.0000 N   0  0  0  0  0  0  0  0  0  0  0  0
    9.8564   -0.6018    0.0000 C   0  0  0  0  0  0  0  0  0  0  0  0
    8.7831    1.7642    0.0000 C   0  0  0  0  0  0  0  0  0  0  0  0
  1  2  2  0
  2  3  1  0
  3  4  2  0
  3  5  1  0
  5  6  1  0
  6  7  2  0
  7  8  1  0
  8  9  1  0
  9 10  1  0
 10 11  2  0
 11 12  1  0
 12 13  2  0
 13 14  1  0
 14 15  2  0
 14 16  1  0
 16 17  1  0
 17 18  1  0
 17 19  1  0
 13 20  1  0
 20 21  1  0
 21 22  2  0
 22 23  1  0
 23 24  1  0
 23 25  1  0
 25 26  2  0
 26 27  1  0
 27 28  2  0
 28 29  1  0
 29 30  2  0
 20 31  2  0
  8 32  2  0
 32 33  1  0
 33 34  1  0
 32 35  1  0
 35 36  2  0
 36 37  1  0
 37 38  1  0
 37 39  1  0
 39 40  1  0
 40 41  1  0
 41 42  1  0
 41 43  1  0
 36  6  1  0
 31 10  1  0
 30 21  1  0
 30 25  1  0
M  END
>  <BrandName>  (357) 


>  <Applicants>  (357) 
Takeda

>  <CHEMBL_ID>  (357) 
CHEMBL4650319

>  <Canonical_Smiles>  (357) 
C=CC(=O)Nc1cc(Nc2ncc(C(=O)OC(C)C)c(-c3cn(C)c4ccccc34)n2)c(OC)cc1N(C)CCN(C)C

>  <Chirality>  (357) 
Achiral Molecule

>  <First_Approval>  (357) 
2021

>  <Phase>  (357) 
4.0

>  <SC_Patent>  (357) 
US-9796712-B2

>  <Synonyms>  (357) 
AP-32788 | AP32788 | MOBOCERTINIB | TAK-788

>  <Withdrawn>  (357) 
{'', 'Study NCT04576208 in unknown country was Withdrawn during PHASE2 because Business Decision (no safety or efficacy concerns)'}

>  <Indications>  (357) 
On September 2021, FDA approved mobocertinib to treat ocally advanced or metastatic non-small cell lung cancer with epidermal growth factor receptor exon 20 insertion mutations

>  <Type>  (357) 
nan

>  <targets_id>  (357) 
nan

>  <Inchi>  (357) 
InChI=1S/C32H39N7O4/c1-9-29(40)34-24-16-25(28(42-8)17-27(24)38(6)15-14-37(4)5)35-32-33-18-22(31(41)43-20(2)3)30(36-32)23-19-39(7)26-13-11-10-12-21(23)26/h9-13,16-20H,1,14-15H2,2-8H3,(H,34,40)(H,33,35,36)

>  <stdInchikey>  (357) 
AZSRSNUQCUDCGG-UHFFFAOYSA-N

>  <csid>  (357) 
84455481

>  <Links>  (357) 
|http://www.chemspider.com/Chemical-Structure.84455481.html|https://www.ebi.ac.uk/chembldb/compound/inspect/CHEMBL4650319|https://pubchem.ncbi.nlm.nih.gov/compound/118607832|https://go.drugbank.com/drugs/DB16390|https://www.guidetopharmacology.org/GRAC/LigandDisplayForward?10468|https://precision.fda.gov/uniisearch/srs/unii/39HBQ4A67L|https://www.bindingdb.org/bind/chemsearch/marvin/MolStructure.jsp?monomerid=368374

>  <LinkName>  (357) 
|ChemSpider|ChEMBL|PubChem|DrugBank|Guide to Pharmacology|FDA SRS|BindingDB

>  <lig_pdb_ID>  (357) 


>  <pdb_IDs>  (357) 


>  <indicationDB>  (357) 


>  <uniprotId>  (357) 


>  <indicationG2P>  (357) 
None

>  <MW>  (357) 
585.3

>  <HBA>  (357) 
10

>  <HBD>  (357) 
2

>  <NRB>  (357) 
12

>  <TPSA>  (357) 
113.8

>  <LogP>  (357) 
5.1

>  <RoF>  (357) 
2

>  <Melting point>  (357) 
nan

>  <Targets>  (357) 
nan

>  <Kinase families>  (357) 


>  <FDA_approved>  (357) 
Y

$$$$
Momelotinib
     RDKit          2D

 31 34  0  0  0  0  0  0  0  0999 V2000
   -4.0114   -2.2227    0.0000 C   0  0  0  0  0  0  0  0  0  0  0  0
   -5.5028   -2.0618    0.0000 C   0  0  0  0  0  0  0  0  0  0  0  0
   -6.1092   -0.6899    0.0000 C   0  0  0  0  0  0  0  0  0  0  0  0
   -5.2242    0.5213    0.0000 C   0  0  0  0  0  0  0  0  0  0  0  0
   -3.7329    0.3604    0.0000 C   0  0  0  0  0  0  0  0  0  0  0  0
   -3.1265   -1.0115    0.0000 C   0  0  0  0  0  0  0  0  0  0  0  0
   -1.6351   -1.1724    0.0000 C   0  0  0  0  0  0  0  0  0  0  0  0
   -1.0287   -2.5443    0.0000 C   0  0  0  0  0  0  0  0  0  0  0  0
    0.4626   -2.7052    0.0000 C   0  0  0  0  0  0  0  0  0  0  0  0
    1.3476   -1.4940    0.0000 N   0  0  0  0  0  0  0  0  0  0  0  0
    0.7412   -0.1221    0.0000 C   0  0  0  0  0  0  0  0  0  0  0  0
   -0.7502    0.0388    0.0000 N   0  0  0  0  0  0  0  0  0  0  0  0
    1.6261    1.0891    0.0000 N   0  0  0  0  0  0  0  0  0  0  0  0
    3.1175    0.9282    0.0000 C   0  0  0  0  0  0  0  0  0  0  0  0
    3.7239   -0.4437    0.0000 C   0  0  0  0  0  0  0  0  0  0  0  0
    5.2152   -0.6046    0.0000 C   0  0  0  0  0  0  0  0  0  0  0  0
    6.1002    0.6066    0.0000 C   0  0  0  0  0  0  0  0  0  0  0  0
    5.4938    1.9785    0.0000 C   0  0  0  0  0  0  0  0  0  0  0  0
    4.0025    2.1394    0.0000 C   0  0  0  0  0  0  0  0  0  0  0  0
    7.5916    0.4457    0.0000 N   0  0  0  0  0  0  0  0  0  0  0  0
    8.1979   -0.9262    0.0000 C   0  0  0  0  0  0  0  0  0  0  0  0
    9.6893   -1.0871    0.0000 C   0  0  0  0  0  0  0  0  0  0  0  0
   10.5743    0.1240    0.0000 O   0  0  0  0  0  0  0  0  0  0  0  0
    9.9679    1.4960    0.0000 C   0  0  0  0  0  0  0  0  0  0  0  0
    8.4765    1.6568    0.0000 C   0  0  0  0  0  0  0  0  0  0  0  0
   -7.6005   -0.5290    0.0000 C   0  0  0  0  0  0  0  0  0  0  0  0
   -8.4855   -1.7402    0.0000 O   0  0  0  0  0  0  0  0  0  0  0  0
   -8.2069    0.8429    0.0000 N   0  0  0  0  0  0  0  0  0  0  0  0
   -9.6983    1.0038    0.0000 C   0  0  0  0  0  0  0  0  0  0  0  0
  -10.3047    2.3757    0.0000 C   0  0  0  0  0  0  0  0  0  0  0  0
  -10.9111    3.7477    0.0000 N   0  0  0  0  0  0  0  0  0  0  0  0
  1  2  2  0
  2  3  1  0
  3  4  2  0
  4  5  1  0
  5  6  2  0
  6  7  1  0
  7  8  2  0
  8  9  1  0
  9 10  2  0
 10 11  1  0
 11 12  2  0
 11 13  1  0
 13 14  1  0
 14 15  2  0
 15 16  1  0
 16 17  2  0
 17 18  1  0
 18 19  2  0
 17 20  1  0
 20 21  1  0
 21 22  1  0
 22 23  1  0
 23 24  1  0
 24 25  1  0
  3 26  1  0
 26 27  2  0
 26 28  1  0
 28 29  1  0
 29 30  1  0
 30 31  3  0
  6  1  1  0
 12  7  1  0
 19 14  1  0
 25 20  1  0
M  END
>  <BrandName>  (358) 


>  <Applicants>  (358) 
Ym Biosciences Australia

>  <CHEMBL_ID>  (358) 
CHEMBL1078178

>  <Canonical_Smiles>  (358) 
c1cc(ccc1c2ccnc(n2)Nc3ccc(cc3)N4CCOCC4)C(=O)NCC#N

>  <Chirality>  (358) 
Achiral Molecule

>  <First_Approval>  (358) 
2023

>  <Phase>  (358) 
4.0

>  <SC_Patent>  (358) 
US-8486941-B2

>  <Synonyms>  (358) 
CYT-0387 | CYT-11387 | CYT-387 | CYT387 | GS-0387 | MOMELOTINIB

>  <Withdrawn>  (358) 
{''}

>  <Indications>  (358) 
On September 2023, FDA approved Momelotinib to treat intermediate or high-risk myelofibrosis in adults with anemia

>  <Type>  (358) 
nan

>  <targets_id>  (358) 
P23458|O60674|P52333

>  <Inchi>  (358) 
InChI=1S/C23H22N6O2/c24-10-12-25-22(30)18-3-1-17(2-4-18)21-9-11-26-23(28-21)27-19-5-7-20(8-6-19)29-13-15-31-16-14-29/h1-9,11H,12-16H2,(H,25,30)(H,26,27,28)

>  <stdInchikey>  (358) 
ZVHNDZWQTBEVRY-UHFFFAOYSA-N

>  <csid>  (358) 
24676202

>  <Links>  (358) 
|http://www.chemspider.com/Chemical-Structure.24676202.html|https://www.ebi.ac.uk/chembldb/compound/inspect/CHEMBL1078178|https://pubchem.ncbi.nlm.nih.gov/compound/25062766|https://go.drugbank.com/drugs/DB11763|https://www.rcsb.org/ligand/C87|https://www.ebi.ac.uk/pdbe-srv/pdbechem/chemicalCompound/show/C87|https://www.guidetopharmacology.org/GRAC/LigandDisplayForward?7791|https://zinc15.docking.org/substances/ZINC000043199890|https://precision.fda.gov/uniisearch/srs/unii/6O01GMS00P|https://www.bindingdb.org/bind/chemsearch/marvin/MolStructure.jsp?monomerid=50311017

>  <LinkName>  (358) 
|ChemSpider|ChEMBL|PubChem|DrugBank|RCSB|PDBe|Guide to Pharmacology|ZINC|FDA SRS|BindingDB

>  <lig_pdb_ID>  (358) 
C87

>  <pdb_IDs>  (358) 
6fdz 7nns 8bxh

>  <indicationDB>  (358) 


>  <uniprotId>  (358) 


>  <indicationG2P>  (358) 
None

>  <MW>  (358) 
414.2

>  <HBA>  (358) 
7

>  <HBD>  (358) 
2

>  <NRB>  (358) 
6

>  <TPSA>  (358) 
103.2

>  <LogP>  (358) 
3.0

>  <RoF>  (358) 
0

>  <Melting point>  (358) 
nan

>  <Targets>  (358) 
JAK1; JAK2; JAK3

>  <Kinase families>  (358) 
Tyr

>  <FDA_approved>  (358) 
Y

$$$$
Lenvatinib
     RDKit          2D

 30 33  0  0  0  0  0  0  0  0999 V2000
    8.5254   -0.5212    0.0000 C   0  0  0  0  0  0  0  0  0  0  0  0
    7.5041    0.5774    0.0000 O   0  0  0  0  0  0  0  0  0  0  0  0
    6.0420    0.2421    0.0000 C   0  0  0  0  0  0  0  0  0  0  0  0
    5.6013   -1.1916    0.0000 C   0  0  0  0  0  0  0  0  0  0  0  0
    4.1392   -1.5269    0.0000 C   0  0  0  0  0  0  0  0  0  0  0  0
    3.1179   -0.4283    0.0000 C   0  0  0  0  0  0  0  0  0  0  0  0
    3.5586    1.0055    0.0000 C   0  0  0  0  0  0  0  0  0  0  0  0
    5.0207    1.3407    0.0000 C   0  0  0  0  0  0  0  0  0  0  0  0
    5.4614    2.7745    0.0000 C   0  0  0  0  0  0  0  0  0  0  0  0
    4.4400    3.8731    0.0000 O   0  0  0  0  0  0  0  0  0  0  0  0
    6.9234    3.1097    0.0000 N   0  0  0  0  0  0  0  0  0  0  0  0
    1.6558   -0.7635    0.0000 C   0  0  0  0  0  0  0  0  0  0  0  0
    1.2151   -2.1973    0.0000 C   0  0  0  0  0  0  0  0  0  0  0  0
    2.2364   -3.2959    0.0000 C   0  0  0  0  0  0  0  0  0  0  0  0
    3.6985   -2.9607    0.0000 N   0  0  0  0  0  0  0  0  0  0  0  0
    0.6345    0.3351    0.0000 O   0  0  0  0  0  0  0  0  0  0  0  0
   -0.8276   -0.0001    0.0000 C   0  0  0  0  0  0  0  0  0  0  0  0
   -1.8489    1.0984    0.0000 C   0  0  0  0  0  0  0  0  0  0  0  0
   -3.3110    0.7632    0.0000 C   0  0  0  0  0  0  0  0  0  0  0  0
   -3.7517   -0.6706    0.0000 C   0  0  0  0  0  0  0  0  0  0  0  0
   -2.7304   -1.7692    0.0000 C   0  0  0  0  0  0  0  0  0  0  0  0
   -1.2683   -1.4339    0.0000 C   0  0  0  0  0  0  0  0  0  0  0  0
   -3.1711   -3.2029    0.0000 Cl  0  0  0  0  0  0  0  0  0  0  0  0
   -5.2138   -1.0058    0.0000 N   0  0  0  0  0  0  0  0  0  0  0  0
   -6.2351    0.0928    0.0000 C   0  0  0  0  0  0  0  0  0  0  0  0
   -5.7944    1.5266    0.0000 O   0  0  0  0  0  0  0  0  0  0  0  0
   -7.6972   -0.2424    0.0000 N   0  0  0  0  0  0  0  0  0  0  0  0
   -8.7185    0.8561    0.0000 C   0  0  0  0  0  0  0  0  0  0  0  0
  -10.1523    1.2969    0.0000 C   0  0  0  0  0  0  0  0  0  0  0  0
   -9.0537    2.3182    0.0000 C   0  0  0  0  0  0  0  0  0  0  0  0
  1  2  1  0
  2  3  1  0
  3  4  2  0
  4  5  1  0
  5  6  2  0
  6  7  1  0
  7  8  2  0
  8  9  1  0
  9 10  2  0
  9 11  1  0
  6 12  1  0
 12 13  2  0
 13 14  1  0
 14 15  2  0
 12 16  1  0
 16 17  1  0
 17 18  2  0
 18 19  1  0
 19 20  2  0
 20 21  1  0
 21 22  2  0
 21 23  1  0
 20 24  1  0
 24 25  1  0
 25 26  2  0
 25 27  1  0
 27 28  1  0
 28 29  1  0
 29 30  1  0
  8  3  1  0
 15  5  1  0
 22 17  1  0
 30 28  1  0
M  END
>  <BrandName>  (359) 
Kisplyx;Lenvima

>  <Applicants>  (359) 
Eisai

>  <CHEMBL_ID>  (359) 
CHEMBL1289601

>  <Canonical_Smiles>  (359) 
COc1cc2c(cc1C(=O)N)c(ccn2)Oc3ccc(c(c3)Cl)NC(=O)NC4CC4

>  <Chirality>  (359) 
Achiral Molecule

>  <First_Approval>  (359) 
2015

>  <Phase>  (359) 
4.0

>  <SC_Patent>  (359) 
US-7253286-B2

>  <Synonyms>  (359) 
E-7080 | ER-203492-00 | KISPLYX | LENVATINIB | LENVIMA

>  <Withdrawn>  (359) 
{'', 'Study NCT05973903 in unknown country was Withdrawn during PHASE1 because It was decided by the researcher not to open the study due to administrative issues', 'Study NCT04044651 in China was Withdrawn during PHASE2 because Bristol-Myers Squibb company terminated this study', 'Study NCT03005015 in Switzerland was Withdrawn during PHASE2 because supporting company (Eisai) withdrew their interest', 'Study NCT04731740 in Russian Federation was Withdrawn during PHASE2 because Lack of funding', 'Study NCT05592197 in China was Withdrawn during NA because This is a sub-study of another one', 'Study NCT03791918 in China was Withdrawn during PHASE3 because No participants enrolled', 'Study NCT06068153 in Austria was Withdrawn during PHASE2 because In view of the recent developments in the field (the increasing number of trials with new KRAS inhibitors), the window of opportunity to answer the question raised in the AMBER trial was missed', 'Study NCT03801499 in China was Withdrawn during PHASE2 because Protocol modification', 'Study NCT03775707 in China was Withdrawn during PHASE2 because Protocol modification', 'Study NCT03746249 in China was Withdrawn during PHASE2 because No participants enrolled', 'Study NCT03919383 in China was Withdrawn during PHASE2 because No participants enrolled', 'Study NCT03744247 in China was Withdrawn during PHASE3 because No paritcipants enrolled', 'Study NCT03803254 in China was Withdrawn during PHASE2 because No participants enrolled', 'Study NCT05545969 in Australia was Withdrawn during PHASE2 because Insufficient funding', 'Study NCT02846766 in United States was Withdrawn during PHASE2 because Unable to execute a contract agreement with the drug manufacturer'}

>  <Indications>  (359) 
Lenvatinib is indicated for the treatment of patients with locally recurrent or metastatic, progressive, radioactive iodine-refractory differentiated thyroid cancer.

>  <Type>  (359) 
1.5

>  <targets_id>  (359) 
P17948|P35968|P35916|P11362|P21802|P22607|P22455|P10721

>  <Inchi>  (359) 
InChI=1S/C21H19ClN4O4/c1-29-19-10-17-13(9-14(19)20(23)27)18(6-7-24-17)30-12-4-5-16(15(22)8-12)26-21(28)25-11-2-3-11/h4-11H,2-3H2,1H3,(H2,23,27)(H2,25,26,28)

>  <stdInchikey>  (359) 
WOSKHXYHFSIKNG-UHFFFAOYSA-N

>  <csid>  (359) 
7999567

>  <Links>  (359) 
|http://www.chemspider.com/Chemical-Structure.7999567.html|https://www.ebi.ac.uk/chembldb/compound/inspect/CHEMBL1289601|https://pubchem.ncbi.nlm.nih.gov/compound/9823820|https://go.drugbank.com/drugs/DB09078|https://www.rcsb.org/ligand/LEV|https://www.ebi.ac.uk/pdbe-srv/pdbechem/chemicalCompound/show/LEV|https://www.guidetopharmacology.org/GRAC/LigandDisplayForward?7426|https://zinc15.docking.org/substances/ZINC000003816292|https://precision.fda.gov/uniisearch/srs/unii/EE083865G2|https://www.bindingdb.org/bind/chemsearch/marvin/MolStructure.jsp?monomerid=50331094

>  <LinkName>  (359) 
|ChemSpider|ChEMBL|PubChem|DrugBank|RCSB|PDBe|Guide to Pharmacology|ZINC|FDA SRS|BindingDB

>  <lig_pdb_ID>  (359) 
LEV

>  <pdb_IDs>  (359) 
3wzd 5zv2

>  <indicationDB>  (359) 


>  <uniprotId>  (359) 


>  <indicationG2P>  (359) 
None

>  <MW>  (359) 
426.1

>  <HBA>  (359) 
5

>  <HBD>  (359) 
3

>  <NRB>  (359) 
6

>  <TPSA>  (359) 
115.6

>  <LogP>  (359) 
4.1

>  <RoF>  (359) 
0

>  <Melting point>  (359) 
nan

>  <Targets>  (359) 
FLT1; KDR; FLT4; FGFR1; FGFR2; FGFR3; FGFR4; KIT

>  <Kinase families>  (359) 
Tyr

>  <FDA_approved>  (359) 
Y

$$$$
Inavolisib
     RDKit          2D

 29 32  0  0  0  0  0  0  0  0999 V2000
    7.3451   -1.3420    0.0000 C   0  0  0  0  0  0  0  0  0  0  0  0
    5.8706   -1.0662    0.0000 C   0  0  0  0  0  0  0  0  0  0  0  0
    4.8946   -2.2051    0.0000 C   0  0  0  0  0  0  0  0  0  0  0  0
    5.3929   -3.6199    0.0000 N   0  0  0  0  0  0  0  0  0  0  0  0
    3.4201   -1.9293    0.0000 O   0  0  0  0  0  0  0  0  0  0  0  0
    5.3723    0.3486    0.0000 N   0  0  0  0  0  0  0  0  0  0  0  0
    3.8979    0.6245    0.0000 C   0  0  0  0  0  0  0  0  0  0  0  0
    2.9218   -0.5145    0.0000 C   0  0  0  0  0  0  0  0  0  0  0  0
    1.4474   -0.2387    0.0000 C   0  0  0  0  0  0  0  0  0  0  0  0
    0.9491    1.1761    0.0000 C   0  0  0  0  0  0  0  0  0  0  0  0
    1.9251    2.3151    0.0000 C   0  0  0  0  0  0  0  0  0  0  0  0
    3.3996    2.0393    0.0000 C   0  0  0  0  0  0  0  0  0  0  0  0
    1.6432    3.7884    0.0000 O   0  0  0  0  0  0  0  0  0  0  0  0
    0.3156    4.4866    0.0000 C   0  0  0  0  0  0  0  0  0  0  0  0
   -1.0580    3.8839    0.0000 C   0  0  0  0  0  0  0  0  0  0  0  0
   -1.4432    2.4342    0.0000 N   0  0  0  0  0  0  0  0  0  0  0  0
   -0.5500    1.2291    0.0000 C   0  0  0  0  0  0  0  0  0  0  0  0
   -1.4201    0.0073    0.0000 N   0  0  0  0  0  0  0  0  0  0  0  0
   -2.8510    0.4572    0.0000 C   0  0  0  0  0  0  0  0  0  0  0  0
   -2.8653    1.9571    0.0000 C   0  0  0  0  0  0  0  0  0  0  0  0
   -4.0561   -0.4361    0.0000 N   0  0  0  0  0  0  0  0  0  0  0  0
   -4.0418   -1.9360    0.0000 C   0  0  0  0  0  0  0  0  0  0  0  0
   -5.4639   -2.4131    0.0000 C   0  0  0  0  0  0  0  0  0  0  0  0
   -6.3571   -1.2080    0.0000 O   0  0  0  0  0  0  0  0  0  0  0  0
   -5.4870    0.0138    0.0000 C   0  0  0  0  0  0  0  0  0  0  0  0
   -5.9641    1.4359    0.0000 O   0  0  0  0  0  0  0  0  0  0  0  0
   -2.8199   -2.8060    0.0000 C   0  0  0  0  0  0  0  0  0  0  0  0
   -2.9624   -4.2993    0.0000 F   0  0  0  0  0  0  0  0  0  0  0  0
   -1.4555   -2.1829    0.0000 F   0  0  0  0  0  0  0  0  0  0  0  0
  2  1  1  1
  2  3  1  0
  3  4  2  0
  3  5  1  0
  2  6  1  0
  6  7  1  0
  7  8  2  0
  8  9  1  0
  9 10  2  0
 10 11  1  0
 11 12  2  0
 11 13  1  0
 13 14  1  0
 14 15  1  0
 15 16  1  0
 16 17  1  0
 17 18  2  0
 18 19  1  0
 19 20  2  0
 19 21  1  0
 21 22  1  0
 22 23  1  0
 23 24  1  0
 24 25  1  0
 25 26  2  0
 22 27  1  6
 27 28  1  0
 27 29  1  0
 12  7  1  0
 10 17  1  0
 20 16  1  0
 25 21  1  0
M  END
>  <BrandName>  (360) 


>  <Applicants>  (360) 
Genentech

>  <CHEMBL_ID>  (360) 
CHEMBL4650215

>  <Canonical_Smiles>  (360) 
C[C@@H](C(=N)O)Nc1ccc-2c(c1)OCCn3c2nc(c3)N4[C@@H](COC4=O)C(F)F

>  <Chirality>  (360) 
Single Stereoisomer

>  <First_Approval>  (360) 
2024

>  <Phase>  (360) 
4.0

>  <SC_Patent>  (360) 
nan

>  <Synonyms>  (360) 
GDC-0077 | GDC0077 | INAVOLISIB | RG-6114 | RG6114 | RO-7113755 | RO7113755

>  <Withdrawn>  (360) 
{''}

>  <Indications>  (360) 
On October 2024, FDA approved inavolisib to treat locally advanced or metastatic breast cancer

>  <Type>  (360) 
nan

>  <targets_id>  (360) 
P48736|P42336

>  <Inchi>  (360) 
InChI=1S/C18H19F2N5O4/c1-9(16(21)26)22-10-2-3-11-13(6-10)28-5-4-24-7-14(23-17(11)24)25-12(15(19)20)8-29-18(25)27/h2-3,6-7,9,12,15,22H,4-5,8H2,1H3,(H2,21,26)/t9-,12-/m0/s1

>  <stdInchikey>  (360) 
SGEUNORSOZVTOL-CABZTGNLSA-N

>  <csid>  (360) 
59718498

>  <Links>  (360) 
|http://www.chemspider.com/Chemical-Structure.59718498.html|https://www.ebi.ac.uk/chembldb/compound/inspect/CHEMBL4650215|https://pubchem.ncbi.nlm.nih.gov/compound/124173720|https://go.drugbank.com/drugs/DB15275|https://www.rcsb.org/ligand/X3N|https://www.ebi.ac.uk/pdbe-srv/pdbechem/chemicalCompound/show/X3N|https://www.guidetopharmacology.org/GRAC/LigandDisplayForward?9636|https://zinc15.docking.org/substances/ZINC000669678973|https://precision.fda.gov/uniisearch/srs/unii/L4C1UY2NYH|https://www.bindingdb.org/bind/chemsearch/marvin/MolStructure.jsp?monomerid=295665

>  <LinkName>  (360) 
|ChemSpider|ChEMBL|PubChem|DrugBank|RCSB|PDBe|Guide to Pharmacology|ZINC|FDA SRS|BindingDB

>  <lig_pdb_ID>  (360) 
X3N

>  <pdb_IDs>  (360) 
8exv 8tdu 8tgd

>  <indicationDB>  (360) 


>  <uniprotId>  (360) 


>  <indicationG2P>  (360) 
None

>  <MW>  (360) 
407.1

>  <HBA>  (360) 
7

>  <HBD>  (360) 
3

>  <NRB>  (360) 
5

>  <TPSA>  (360) 
112.7

>  <LogP>  (360) 
2.9

>  <RoF>  (360) 
0

>  <Melting point>  (360) 
nan

>  <Targets>  (360) 
PIK3CG; PIK3CA

>  <Kinase families>  (360) 
Atypical

>  <FDA_approved>  (360) 
Y

$$$$
Umbralisib
     RDKit          2D

 42 47  0  0  0  0  0  0  0  0999 V2000
    2.6522    2.4495    0.0000 C   0  0  0  0  0  0  0  0  0  0  0  0
    1.7439    1.2558    0.0000 C   0  0  0  0  0  0  0  0  0  0  0  0
    2.3235   -0.1277    0.0000 C   0  0  0  0  0  0  0  0  0  0  0  0
    3.8115   -0.3175    0.0000 C   0  0  0  0  0  0  0  0  0  0  0  0
    4.3911   -1.7010    0.0000 C   0  0  0  0  0  0  0  0  0  0  0  0
    5.8790   -1.8907    0.0000 O   0  0  0  0  0  0  0  0  0  0  0  0
    3.4828   -2.8947    0.0000 C   0  0  0  0  0  0  0  0  0  0  0  0
    4.0624   -4.2782    0.0000 C   0  0  0  0  0  0  0  0  0  0  0  0
    3.1541   -5.4719    0.0000 C   0  0  0  0  0  0  0  0  0  0  0  0
    1.6662   -5.2821    0.0000 C   0  0  0  0  0  0  0  0  0  0  0  0
    1.0865   -3.8986    0.0000 C   0  0  0  0  0  0  0  0  0  0  0  0
    1.9948   -2.7049    0.0000 C   0  0  0  0  0  0  0  0  0  0  0  0
    1.4152   -1.3214    0.0000 O   0  0  0  0  0  0  0  0  0  0  0  0
    3.7337   -6.8554    0.0000 F   0  0  0  0  0  0  0  0  0  0  0  0
    4.7198    0.8762    0.0000 C   0  0  0  0  0  0  0  0  0  0  0  0
    4.1401    2.2597    0.0000 C   0  0  0  0  0  0  0  0  0  0  0  0
    5.0485    3.4535    0.0000 C   0  0  0  0  0  0  0  0  0  0  0  0
    6.5364    3.2637    0.0000 C   0  0  0  0  0  0  0  0  0  0  0  0
    7.1160    1.8802    0.0000 C   0  0  0  0  0  0  0  0  0  0  0  0
    6.2077    0.6865    0.0000 C   0  0  0  0  0  0  0  0  0  0  0  0
    8.6040    1.6904    0.0000 F   0  0  0  0  0  0  0  0  0  0  0  0
    0.2559    1.4455    0.0000 N   0  0  0  0  0  0  0  0  0  0  0  0
   -0.4651    2.7609    0.0000 C   0  0  0  0  0  0  0  0  0  0  0  0
   -1.9389    2.4815    0.0000 C   0  0  0  0  0  0  0  0  0  0  0  0
   -2.1287    0.9936    0.0000 C   0  0  0  0  0  0  0  0  0  0  0  0
   -0.7722    0.3533    0.0000 N   0  0  0  0  0  0  0  0  0  0  0  0
   -3.4440    0.2725    0.0000 C   0  0  0  0  0  0  0  0  0  0  0  0
   -4.7261    1.0511    0.0000 C   0  0  0  0  0  0  0  0  0  0  0  0
   -6.0414    0.3300    0.0000 C   0  0  0  0  0  0  0  0  0  0  0  0
   -6.0746   -1.1696    0.0000 C   0  0  0  0  0  0  0  0  0  0  0  0
   -4.7925   -1.9482    0.0000 C   0  0  0  0  0  0  0  0  0  0  0  0
   -3.4772   -1.2271    0.0000 C   0  0  0  0  0  0  0  0  0  0  0  0
   -4.8257   -3.4478    0.0000 F   0  0  0  0  0  0  0  0  0  0  0  0
   -7.3899   -1.8907    0.0000 O   0  0  0  0  0  0  0  0  0  0  0  0
   -8.6720   -1.1122    0.0000 C   0  0  0  0  0  0  0  0  0  0  0  0
   -9.9874   -1.8332    0.0000 C   0  0  0  0  0  0  0  0  0  0  0  0
   -8.6389    0.3875    0.0000 C   0  0  0  0  0  0  0  0  0  0  0  0
   -2.9177    3.6182    0.0000 C   0  0  0  0  0  0  0  0  0  0  0  0
   -2.4227    5.0342    0.0000 N   0  0  0  0  0  0  0  0  0  0  0  0
   -0.9489    5.3135    0.0000 C   0  0  0  0  0  0  0  0  0  0  0  0
    0.0298    4.1768    0.0000 N   0  0  0  0  0  0  0  0  0  0  0  0
   -4.3914    3.3389    0.0000 N   0  0  0  0  0  0  0  0  0  0  0  0
  2  1  1  1
  2  3  1  0
  3  4  2  0
  4  5  1  0
  5  6  2  0
  5  7  1  0
  7  8  2  0
  8  9  1  0
  9 10  2  0
 10 11  1  0
 11 12  2  0
 12 13  1  0
  9 14  1  0
  4 15  1  0
 15 16  2  0
 16 17  1  0
 17 18  2  0
 18 19  1  0
 19 20  2  0
 19 21  1  0
  2 22  1  0
 22 23  1  0
 23 24  2  0
 24 25  1  0
 25 26  2  0
 25 27  1  0
 27 28  2  0
 28 29  1  0
 29 30  2  0
 30 31  1  0
 31 32  2  0
 31 33  1  0
 30 34  1  0
 34 35  1  0
 35 36  1  0
 35 37  1  0
 24 38  1  0
 38 39  2  0
 39 40  1  0
 40 41  2  0
 38 42  1  0
 13  3  1  0
 12  7  1  0
 20 15  1  0
 26 22  1  0
 41 23  1  0
 32 27  1  0
M  END
>  <BrandName>  (361) 


>  <Applicants>  (361) 
TG Therapeutics

>  <CHEMBL_ID>  (361) 
CHEMBL3948730

>  <Canonical_Smiles>  (361) 
C[C@@H](c1c(c(=O)c2cc(ccc2o1)F)c3cccc(c3)F)n4c5c(c(n4)c6ccc(c(c6)F)OC(C)C)c(ncn5)N

>  <Chirality>  (361) 
Single Stereoisomer

>  <First_Approval>  (361) 
2021

>  <Phase>  (361) 
4.0

>  <SC_Patent>  (361) 
US-9150579-B2

>  <Synonyms>  (361) 
RP-5264 | RP5264 | TGR 1202 | TGR-1202 BASE | TGR-1202 FREE BASE | UMBRALISIB

>  <Withdrawn>  (361) 
{'', 'Study NCT04635683 in unknown country was Withdrawn during PHASE1 because Investigational Drug removed from the market'}

>  <Indications>  (361) 
On February 2021, FDA approved umbralisib for the treatment of certain patients with marginal zone lymphoma and follicular lymphoma

>  <Type>  (361) 
nan

>  <targets_id>  (361) 
nan

>  <Inchi>  (361) 
InChI=1S/C31H24F3N5O3/c1-15(2)41-24-9-7-18(12-22(24)34)27-26-30(35)36-14-37-31(26)39(38-27)16(3)29-25(17-5-4-6-19(32)11-17)28(40)21-13-20(33)8-10-23(21)42-29/h4-16H,1-3H3,(H2,35,36,37)/t16-/m0/s1

>  <stdInchikey>  (361) 
IUVCFHHAEHNCFT-INIZCTEOSA-N

>  <csid>  (361) 
34979945

>  <Links>  (361) 
|http://www.chemspider.com/Chemical-Structure.34979945.html|https://www.ebi.ac.uk/chembldb/compound/inspect/CHEMBL3948730|https://pubchem.ncbi.nlm.nih.gov/compound/72950888|https://go.drugbank.com/drugs/DB14989|https://www.guidetopharmacology.org/GRAC/LigandDisplayForward?8916|https://zinc15.docking.org/substances/ZINC000141831516|https://precision.fda.gov/uniisearch/srs/unii/38073MQB2A|https://www.bindingdb.org/bind/chemsearch/marvin/MolStructure.jsp?monomerid=184556

>  <LinkName>  (361) 
|ChemSpider|ChEMBL|PubChem|DrugBank|Guide to Pharmacology|ZINC|FDA SRS|BindingDB

>  <lig_pdb_ID>  (361) 


>  <pdb_IDs>  (361) 


>  <indicationDB>  (361) 


>  <uniprotId>  (361) 


>  <indicationG2P>  (361) 
None

>  <MW>  (361) 
571.2

>  <HBA>  (361) 
8

>  <HBD>  (361) 
1

>  <NRB>  (361) 
6

>  <TPSA>  (361) 
109.1

>  <LogP>  (361) 
6.7

>  <RoF>  (361) 
2

>  <Melting point>  (361) 
139-142

>  <Targets>  (361) 
nan

>  <Kinase families>  (361) 


>  <FDA_approved>  (361) 
Y

$$$$
Leniolisib
     RDKit          2D

 32 35  0  0  0  0  0  0  0  0999 V2000
    9.1778    0.0144    0.0000 C   0  0  0  0  0  0  0  0  0  0  0  0
    7.6857    0.1681    0.0000 C   0  0  0  0  0  0  0  0  0  0  0  0
    7.0728    1.5372    0.0000 C   0  0  0  0  0  0  0  0  0  0  0  0
    7.9520    2.7525    0.0000 O   0  0  0  0  0  0  0  0  0  0  0  0
    5.5807    1.6910    0.0000 N   0  0  0  0  0  0  0  0  0  0  0  0
    4.8281    2.9885    0.0000 C   0  0  0  0  0  0  0  0  0  0  0  0
    3.3615    2.6737    0.0000 C   0  0  0  0  0  0  0  0  0  0  0  0
    3.2077    1.1816    0.0000 C   0  0  0  0  0  0  0  0  0  0  0  0
    4.5793    0.5742    0.0000 C   0  0  0  0  0  0  0  0  0  0  0  0
    1.9102    0.4289    0.0000 N   0  0  0  0  0  0  0  0  0  0  0  0
    1.9132   -1.0710    0.0000 C   0  0  0  0  0  0  0  0  0  0  0  0
    0.6157   -1.8237    0.0000 C   0  0  0  0  0  0  0  0  0  0  0  0
    0.6188   -3.3237    0.0000 C   0  0  0  0  0  0  0  0  0  0  0  0
    1.9193   -4.0710    0.0000 N   0  0  0  0  0  0  0  0  0  0  0  0
    3.2168   -3.3184    0.0000 C   0  0  0  0  0  0  0  0  0  0  0  0
    3.2138   -1.8184    0.0000 N   0  0  0  0  0  0  0  0  0  0  0  0
   -0.6788   -4.0763    0.0000 C   0  0  0  0  0  0  0  0  0  0  0  0
   -1.9793   -3.3289    0.0000 C   0  0  0  0  0  0  0  0  0  0  0  0
   -1.9823   -1.8289    0.0000 N   0  0  0  0  0  0  0  0  0  0  0  0
   -0.6848   -1.0763    0.0000 C   0  0  0  0  0  0  0  0  0  0  0  0
   -3.2829   -1.0816    0.0000 C   0  0  0  0  0  0  0  0  0  0  0  0
   -3.2859    0.4184    0.0000 C   0  0  0  0  0  0  0  0  0  0  0  0
   -4.5865    1.1658    0.0000 C   0  0  0  0  0  0  0  0  0  0  0  0
   -5.8840    0.4132    0.0000 C   0  0  0  0  0  0  0  0  0  0  0  0
   -5.8810   -1.0868    0.0000 N   0  0  0  0  0  0  0  0  0  0  0  0
   -4.5804   -1.8342    0.0000 C   0  0  0  0  0  0  0  0  0  0  0  0
   -7.1846    1.1606    0.0000 O   0  0  0  0  0  0  0  0  0  0  0  0
   -8.4821    0.4079    0.0000 C   0  0  0  0  0  0  0  0  0  0  0  0
   -4.5895    2.6658    0.0000 C   0  0  0  0  0  0  0  0  0  0  0  0
   -4.5925    4.1658    0.0000 F   0  0  0  0  0  0  0  0  0  0  0  0
   -3.0895    2.6688    0.0000 F   0  0  0  0  0  0  0  0  0  0  0  0
   -6.0895    2.6628    0.0000 F   0  0  0  0  0  0  0  0  0  0  0  0
  1  2  1  0
  2  3  1  0
  3  4  2  0
  3  5  1  0
  5  6  1  0
  6  7  1  0
  7  8  1  0
  8  9  1  0
  8 10  1  1
 10 11  1  0
 11 12  2  0
 12 13  1  0
 13 14  2  0
 14 15  1  0
 15 16  2  0
 13 17  1  0
 17 18  1  0
 18 19  1  0
 19 20  1  0
 19 21  1  0
 21 22  2  0
 22 23  1  0
 23 24  2  0
 24 25  1  0
 25 26  2  0
 24 27  1  0
 27 28  1  0
 23 29  1  0
 29 30  1  0
 29 31  1  0
 29 32  1  0
  9  5  1  0
 16 11  1  0
 20 12  1  0
 26 21  1  0
M  END
>  <BrandName>  (362) 


>  <Applicants>  (362) 
Novartis

>  <CHEMBL_ID>  (362) 
CHEMBL3643413

>  <Canonical_Smiles>  (362) 
CCC(=O)N1CC[C@@H](C1)Nc2c3c(ncn2)CCN(C3)c4cc(c(nc4)OC)C(F)(F)F

>  <Chirality>  (362) 
Single Stereoisomer

>  <First_Approval>  (362) 
2023

>  <Phase>  (362) 
4.0

>  <SC_Patent>  (362) 
US-8653092-B2

>  <Synonyms>  (362) 
CDZ-173 FREE BASE | CDZ-173-NX | CDZ173 FREE BASE | CDZ173-NX | LENIOLISIB

>  <Withdrawn>  (362) 
nan

>  <Indications>  (362) 
On March 2023, FDA approved Leniolosib to treat activated phosphoinositide 3-kinase delta syndrome

>  <Type>  (362) 
nan

>  <targets_id>  (362) 
nan

>  <Inchi>  (362) 
InChI=1S/C21H25F3N6O2/c1-3-18(31)30-6-4-13(10-30)28-19-15-11-29(7-5-17(15)26-12-27-19)14-8-16(21(22,23)24)20(32-2)25-9-14/h8-9,12-13H,3-7,10-11H2,1-2H3,(H,26,27,28)/t13-/m0/s1

>  <stdInchikey>  (362) 
MWKYMZXCGYXLPL-ZDUSSCGKSA-N

>  <csid>  (362) 
52083264

>  <Links>  (362) 
|http://www.chemspider.com/Chemical-Structure.52083264.html|https://www.ebi.ac.uk/chembldb/compound/inspect/CHEMBL3643413|https://pubchem.ncbi.nlm.nih.gov/compound/57495353|https://go.drugbank.com/drugs/DB16217|https://www.rcsb.org/ligand/9NQ|https://www.ebi.ac.uk/pdbe-srv/pdbechem/chemicalCompound/show/9NQ|https://www.guidetopharmacology.org/GRAC/LigandDisplayForward?9424|https://precision.fda.gov/uniisearch/srs/unii/L22772Z9CP|https://www.bindingdb.org/bind/chemsearch/marvin/MolStructure.jsp?monomerid=118299

>  <LinkName>  (362) 
|ChemSpider|ChEMBL|PubChem|DrugBank|RCSB|PDBe|Guide to Pharmacology|FDA SRS|BindingDB

>  <lig_pdb_ID>  (362) 
9NQ

>  <pdb_IDs>  (362) 
5o83

>  <indicationDB>  (362) 


>  <uniprotId>  (362) 


>  <indicationG2P>  (362) 
None

>  <MW>  (362) 
450.2

>  <HBA>  (362) 
7

>  <HBD>  (362) 
1

>  <NRB>  (362) 
5

>  <TPSA>  (362) 
83.5

>  <LogP>  (362) 
2.9

>  <RoF>  (362) 
0

>  <Melting point>  (362) 
nan

>  <Targets>  (362) 
nan

>  <Kinase families>  (362) 


>  <FDA_approved>  (362) 
Y

$$$$
Pirtobrutinib
     RDKit          2D

 34 36  0  0  0  0  0  0  0  0999 V2000
   -4.3456   -2.8852    0.0000 C   0  0  0  0  0  0  0  0  0  0  0  0
   -4.5970   -1.4064    0.0000 O   0  0  0  0  0  0  0  0  0  0  0  0
   -6.0033   -0.8847    0.0000 C   0  0  0  0  0  0  0  0  0  0  0  0
   -7.1583   -1.8418    0.0000 C   0  0  0  0  0  0  0  0  0  0  0  0
   -8.5647   -1.3201    0.0000 C   0  0  0  0  0  0  0  0  0  0  0  0
   -8.8161    0.1587    0.0000 C   0  0  0  0  0  0  0  0  0  0  0  0
  -10.2224    0.6804    0.0000 F   0  0  0  0  0  0  0  0  0  0  0  0
   -7.6611    1.1158    0.0000 C   0  0  0  0  0  0  0  0  0  0  0  0
   -6.2547    0.5941    0.0000 C   0  0  0  0  0  0  0  0  0  0  0  0
   -5.0998    1.5512    0.0000 C   0  0  0  0  0  0  0  0  0  0  0  0
   -5.3511    3.0300    0.0000 O   0  0  0  0  0  0  0  0  0  0  0  0
   -3.6934    1.0295    0.0000 N   0  0  0  0  0  0  0  0  0  0  0  0
   -2.5384    1.9866    0.0000 C   0  0  0  0  0  0  0  0  0  0  0  0
   -1.1321    1.4649    0.0000 C   0  0  0  0  0  0  0  0  0  0  0  0
   -0.8807   -0.0139    0.0000 C   0  0  0  0  0  0  0  0  0  0  0  0
    0.5257   -0.5356    0.0000 C   0  0  0  0  0  0  0  0  0  0  0  0
    1.6807    0.4215    0.0000 C   0  0  0  0  0  0  0  0  0  0  0  0
    3.0870   -0.1002    0.0000 C   0  0  0  0  0  0  0  0  0  0  0  0
    4.3357    0.7310    0.0000 N   0  0  0  0  0  0  0  0  0  0  0  0
    5.5120   -0.1998    0.0000 N   0  0  0  0  0  0  0  0  0  0  0  0
    6.9564    0.2048    0.0000 C   0  0  0  0  0  0  0  0  0  0  0  0
    8.0290   -0.8438    0.0000 C   0  0  0  0  0  0  0  0  0  0  0  0
    7.3282    1.6580    0.0000 C   0  0  0  0  0  0  0  0  0  0  0  0
    7.7001    3.1112    0.0000 F   0  0  0  0  0  0  0  0  0  0  0  0
    8.7814    1.2862    0.0000 F   0  0  0  0  0  0  0  0  0  0  0  0
    5.8751    2.0298    0.0000 F   0  0  0  0  0  0  0  0  0  0  0  0
    4.9903   -1.6061    0.0000 C   0  0  0  0  0  0  0  0  0  0  0  0
    5.8215   -2.8548    0.0000 N   0  0  0  0  0  0  0  0  0  0  0  0
    3.4916   -1.5446    0.0000 C   0  0  0  0  0  0  0  0  0  0  0  0
    2.5609   -2.7209    0.0000 C   0  0  0  0  0  0  0  0  0  0  0  0
    3.1142   -4.1151    0.0000 N   0  0  0  0  0  0  0  0  0  0  0  0
    1.0768   -2.5030    0.0000 O   0  0  0  0  0  0  0  0  0  0  0  0
    1.4293    1.9003    0.0000 C   0  0  0  0  0  0  0  0  0  0  0  0
    0.0229    2.4220    0.0000 C   0  0  0  0  0  0  0  0  0  0  0  0
  1  2  1  0
  2  3  1  0
  3  4  2  0
  4  5  1  0
  5  6  2  0
  6  7  1  0
  6  8  1  0
  8  9  2  0
  9 10  1  0
 10 11  2  0
 10 12  1  0
 12 13  1  0
 13 14  1  0
 14 15  2  0
 15 16  1  0
 16 17  2  0
 17 18  1  0
 18 19  2  0
 19 20  1  0
 20 21  1  0
 21 22  1  6
 21 23  1  0
 23 24  1  0
 23 25  1  0
 23 26  1  0
 20 27  1  0
 27 28  1  0
 27 29  2  0
 29 30  1  0
 30 31  1  0
 30 32  2  0
 17 33  1  0
 33 34  2  0
  9  3  1  0
 34 14  1  0
 29 18  1  0
M  END
>  <BrandName>  (363) 
Jaypirca

>  <Applicants>  (363) 
Loxo Oncology

>  <CHEMBL_ID>  (363) 
CHEMBL4650485

>  <Canonical_Smiles>  (363) 
COc1ccc(F)cc1C(=O)NCc1ccc(-c2nn([C@@H](C)C(F)(F)F)c(N)c2C(N)=O)cc1

>  <Chirality>  (363) 
Single Stereoisomer

>  <First_Approval>  (363) 
2023

>  <Phase>  (363) 
4.0

>  <SC_Patent>  (363) 
US-10342780-B2

>  <Synonyms>  (363) 
JAYPIRCA | LOXO-305 | LY-3527727 | LY3527727 | PIRTOBRUTINIB | RXC-005

>  <Withdrawn>  (363) 
{'', 'Study NCT06104683 in United States was Withdrawn during PHASE2 because Sponsor Decision: The trial has been withdrawn with no plans to continue development'}

>  <Indications>  (363) 
On January 2023, FDA approved Pirtobrutinib to treat relapsed or refractory mantle cell lymphoma in adults who have had at least two lines of systemic therapy, including a BTK inhibitor

>  <Type>  (363) 
nan

>  <targets_id>  (363) 
nan

>  <Inchi>  (363) 
InChI=1S/C22H21F4N5O3/c1-11(22(24,25)26)31-19(27)17(20(28)32)18(30-31)13-5-3-12(4-6-13)10-29-21(33)15-9-14(23)7-8-16(15)34-2/h3-9,11H,10,27H2,1-2H3,(H2,28,32)(H,29,33)/t11-/m0/s1

>  <stdInchikey>  (363) 
FWZAWAUZXYCBKZ-NSHDSACASA-N

>  <csid>  (363) 
114875989

>  <Links>  (363) 
|http://www.chemspider.com/Chemical-Structure.114875989.html|https://www.ebi.ac.uk/chembldb/compound/inspect/CHEMBL4650485|https://pubchem.ncbi.nlm.nih.gov/compound/129269915|https://go.drugbank.com/drugs/DB17472|https://www.rcsb.org/ligand/Y7W|https://www.ebi.ac.uk/pdbe-srv/pdbechem/chemicalCompound/show/Y7W|https://precision.fda.gov/uniisearch/srs/unii/JNA39I7ZVB

>  <LinkName>  (363) 
|ChemSpider|ChEMBL|PubChem|DrugBank|RCSB|PDBe|FDA SRS

>  <lig_pdb_ID>  (363) 
Y7W

>  <pdb_IDs>  (363) 
8fll 8fln

>  <indicationDB>  (363) 


>  <uniprotId>  (363) 


>  <indicationG2P>  (363) 


>  <MW>  (363) 
479.2

>  <HBA>  (363) 
6

>  <HBD>  (363) 
3

>  <NRB>  (363) 
7

>  <TPSA>  (363) 
125.3

>  <LogP>  (363) 
3.4

>  <RoF>  (363) 
0

>  <Melting point>  (363) 
nan

>  <Targets>  (363) 
nan

>  <Kinase families>  (363) 


>  <FDA_approved>  (363) 
Y

$$$$
Ponatinib
     RDKit          2D

 39 43  0  0  0  0  0  0  0  0999 V2000
    5.6633   -3.4199    0.0000 C   0  0  0  0  0  0  0  0  0  0  0  0
    4.1859   -3.1607    0.0000 C   0  0  0  0  0  0  0  0  0  0  0  0
    3.2227   -4.3106    0.0000 C   0  0  0  0  0  0  0  0  0  0  0  0
    1.7453   -4.0514    0.0000 C   0  0  0  0  0  0  0  0  0  0  0  0
    1.2310   -2.6423    0.0000 C   0  0  0  0  0  0  0  0  0  0  0  0
    2.1942   -1.4924    0.0000 C   0  0  0  0  0  0  0  0  0  0  0  0
    3.6717   -1.7516    0.0000 C   0  0  0  0  0  0  0  0  0  0  0  0
    4.6349   -0.6017    0.0000 C   0  0  0  0  0  0  0  0  0  0  0  0
    5.5981    0.5482    0.0000 C   0  0  0  0  0  0  0  0  0  0  0  0
    6.5613    1.6981    0.0000 C   0  0  0  0  0  0  0  0  0  0  0  0
    6.1971    3.1532    0.0000 C   0  0  0  0  0  0  0  0  0  0  0  0
    7.4685    3.9492    0.0000 N   0  0  0  0  0  0  0  0  0  0  0  0
    8.6184    2.9860    0.0000 C   0  0  0  0  0  0  0  0  0  0  0  0
    8.0577    1.5947    0.0000 N   0  0  0  0  0  0  0  0  0  0  0  0
    8.9822    0.4135    0.0000 N   0  0  0  0  0  0  0  0  0  0  0  0
   10.4674    0.6235    0.0000 C   0  0  0  0  0  0  0  0  0  0  0  0
   11.0281    2.0148    0.0000 C   0  0  0  0  0  0  0  0  0  0  0  0
   10.1036    3.1960    0.0000 C   0  0  0  0  0  0  0  0  0  0  0  0
   -0.2464   -2.3831    0.0000 C   0  0  0  0  0  0  0  0  0  0  0  0
   -1.2096   -3.5330    0.0000 O   0  0  0  0  0  0  0  0  0  0  0  0
   -0.7606   -0.9740    0.0000 N   0  0  0  0  0  0  0  0  0  0  0  0
   -2.2381   -0.7148    0.0000 C   0  0  0  0  0  0  0  0  0  0  0  0
   -2.7523    0.6943    0.0000 C   0  0  0  0  0  0  0  0  0  0  0  0
   -4.2297    0.9535    0.0000 C   0  0  0  0  0  0  0  0  0  0  0  0
   -5.1929   -0.1964    0.0000 C   0  0  0  0  0  0  0  0  0  0  0  0
   -4.6787   -1.6055    0.0000 C   0  0  0  0  0  0  0  0  0  0  0  0
   -3.2013   -1.8647    0.0000 C   0  0  0  0  0  0  0  0  0  0  0  0
   -5.6419   -2.7553    0.0000 C   0  0  0  0  0  0  0  0  0  0  0  0
   -6.6051   -3.9052    0.0000 F   0  0  0  0  0  0  0  0  0  0  0  0
   -4.4920   -3.7185    0.0000 F   0  0  0  0  0  0  0  0  0  0  0  0
   -6.7918   -1.7921    0.0000 F   0  0  0  0  0  0  0  0  0  0  0  0
   -6.6704    0.0629    0.0000 C   0  0  0  0  0  0  0  0  0  0  0  0
   -7.1846    1.4720    0.0000 N   0  0  0  0  0  0  0  0  0  0  0  0
   -6.2214    2.6218    0.0000 C   0  0  0  0  0  0  0  0  0  0  0  0
   -6.7356    4.0309    0.0000 C   0  0  0  0  0  0  0  0  0  0  0  0
   -8.2131    4.2902    0.0000 N   0  0  0  0  0  0  0  0  0  0  0  0
   -9.1763    3.1403    0.0000 C   0  0  0  0  0  0  0  0  0  0  0  0
   -8.6620    1.7312    0.0000 C   0  0  0  0  0  0  0  0  0  0  0  0
   -8.7273    5.6993    0.0000 C   0  0  0  0  0  0  0  0  0  0  0  0
  1  2  1  0
  2  3  2  0
  3  4  1  0
  4  5  2  0
  5  6  1  0
  6  7  2  0
  7  8  1  0
  8  9  3  0
  9 10  1  0
 10 11  2  0
 11 12  1  0
 12 13  2  0
 13 14  1  0
 14 15  1  0
 15 16  2  0
 16 17  1  0
 17 18  2  0
  5 19  1  0
 19 20  2  0
 19 21  1  0
 21 22  1  0
 22 23  2  0
 23 24  1  0
 24 25  2  0
 25 26  1  0
 26 27  2  0
 26 28  1  0
 28 29  1  0
 28 30  1  0
 28 31  1  0
 25 32  1  0
 32 33  1  0
 33 34  1  0
 34 35  1  0
 35 36  1  0
 36 37  1  0
 37 38  1  0
 36 39  1  0
  7  2  1  0
 14 10  1  0
 18 13  1  0
 27 22  1  0
 38 33  1  0
M  END
>  <BrandName>  (364) 
Iclusig

>  <Applicants>  (364) 
Ariad Pharmaceuticals

>  <CHEMBL_ID>  (364) 
CHEMBL1171837

>  <Canonical_Smiles>  (364) 
Cc1ccc(cc1C#Cc2cnc3n2nccc3)C(=O)Nc4ccc(c(c4)C(F)(F)F)CN5CCN(CC5)C

>  <Chirality>  (364) 
Achiral Molecule

>  <First_Approval>  (364) 
2012

>  <Phase>  (364) 
4.0

>  <SC_Patent>  (364) 
US-8114874-B2

>  <Synonyms>  (364) 
AP-24534 | AP24534 | ICLUSIG | PONATINIB

>  <Withdrawn>  (364) 
{'', 'Study NCT01888562 in unknown country was Withdrawn during NA because Could not obtain an IDE on the FGFR2 assay', 'Study NCT04845035 in United States was Withdrawn during PHASE2 because The PI plans to revise the study design in a new protocol', 'Study NCT03838692 in unknown country was Withdrawn during PHASE2 because Closed by sponsor'}

>  <Indications>  (364) 
Ponatinib is indicated for the treatment of adult patients with chronic phase, accelerated phase, or blast phase chronic myeloid leukemia (CML) that is resistant or intolerant to prior tyrosine kinase inhibitor therapy or Philadelphia chromosome positive acute lymphoblastic leukemia (Ph+ALL) that is resistant or intolerant to prior tyrosine kinase inhibitor therapy.

>  <Type>  (364) 
2

>  <targets_id>  (364) 
P00519|P11274|P10721|P07949|Q02763|P36888|P11362|P21802|P22607|P22455|P06239|P12931|P07948|P35968|P16234

>  <Inchi>  (364) 
InChI=1S/C29H27F3N6O/c1-20-5-6-22(16-21(20)8-10-25-18-33-27-4-3-11-34-38(25)27)28(39)35-24-9-7-23(26(17-24)29(30,31)32)19-37-14-12-36(2)13-15-37/h3-7,9,11,16-18H,12-15,19H2,1-2H3,(H,35,39)

>  <stdInchikey>  (364) 
PHXJVRSECIGDHY-UHFFFAOYSA-N

>  <csid>  (364) 
24747381

>  <Links>  (364) 
|http://www.chemspider.com/Chemical-Structure.24747381.html|https://www.ebi.ac.uk/chembldb/compound/inspect/CHEMBL1171837|https://pubchem.ncbi.nlm.nih.gov/compound/24826799|https://go.drugbank.com/drugs/DB08901|https://www.rcsb.org/ligand/0LI|https://www.ebi.ac.uk/pdbe-srv/pdbechem/chemicalCompound/show/0LI|https://www.guidetopharmacology.org/GRAC/LigandDisplayForward?5890|https://zinc15.docking.org/substances/ZINC000036701290|https://precision.fda.gov/uniisearch/srs/unii/4340891KFS|https://www.bindingdb.org/bind/chemsearch/marvin/MolStructure.jsp?monomerid=50322535

>  <LinkName>  (364) 
|ChemSpider|ChEMBL|PubChem|DrugBank|RCSB|PDBe|Guide to Pharmacology|ZINC|FDA SRS|BindingDB

>  <lig_pdb_ID>  (364) 
0LI

>  <pdb_IDs>  (364) 
3ik3 3oxz 3zos 4c8b 4qrc 4tyj 4u0i 4uxq 4v01 4v04 6eg9 6p3d 6tu9 7ote 7wf5 8u8a

>  <indicationDB>  (364) 


>  <uniprotId>  (364) 


>  <indicationG2P>  (364) 
None

>  <MW>  (364) 
532.2

>  <HBA>  (364) 
6

>  <HBD>  (364) 
1

>  <NRB>  (364) 
4

>  <TPSA>  (364) 
65.8

>  <LogP>  (364) 
4.5

>  <RoF>  (364) 
1

>  <Melting point>  (364) 
nan

>  <Targets>  (364) 
ABL1; BCR; KIT; RET; TEK; FLT3; FGFR1; FGFR2; FGFR3; FGFR4; LCK; SRC; LYN; KDR; PDGFRA

>  <Kinase families>  (364) 
Tyr<br>Atypical

>  <FDA_approved>  (364) 
Y

$$$$
Osimertinib
     RDKit          2D

 37 40  0  0  0  0  0  0  0  0999 V2000
    8.3580   -2.5010    0.0000 C   0  0  0  0  0  0  0  0  0  0  0  0
    7.3024   -1.4353    0.0000 N   0  0  0  0  0  0  0  0  0  0  0  0
    5.8198   -1.6629    0.0000 C   0  0  0  0  0  0  0  0  0  0  0  0
    5.1451   -0.3232    0.0000 C   0  0  0  0  0  0  0  0  0  0  0  0
    6.2108    0.7324    0.0000 C   0  0  0  0  0  0  0  0  0  0  0  0
    7.5441    0.0451    0.0000 C   0  0  0  0  0  0  0  0  0  0  0  0
    8.8060    0.8560    0.0000 C   0  0  0  0  0  0  0  0  0  0  0  0
    8.7346    2.3543    0.0000 C   0  0  0  0  0  0  0  0  0  0  0  0
    7.4013    3.0417    0.0000 C   0  0  0  0  0  0  0  0  0  0  0  0
    6.1394    2.2307    0.0000 C   0  0  0  0  0  0  0  0  0  0  0  0
    3.6647   -0.0815    0.0000 C   0  0  0  0  0  0  0  0  0  0  0  0
    3.1339    1.3214    0.0000 C   0  0  0  0  0  0  0  0  0  0  0  0
    1.6534    1.5631    0.0000 C   0  0  0  0  0  0  0  0  0  0  0  0
    0.7039    0.4018    0.0000 N   0  0  0  0  0  0  0  0  0  0  0  0
    1.2348   -1.0011    0.0000 C   0  0  0  0  0  0  0  0  0  0  0  0
    2.7152   -1.2427    0.0000 N   0  0  0  0  0  0  0  0  0  0  0  0
    0.2853   -2.1623    0.0000 N   0  0  0  0  0  0  0  0  0  0  0  0
   -1.1951   -1.9206    0.0000 C   0  0  0  0  0  0  0  0  0  0  0  0
   -1.7260   -0.5177    0.0000 C   0  0  0  0  0  0  0  0  0  0  0  0
   -3.2064   -0.2760    0.0000 C   0  0  0  0  0  0  0  0  0  0  0  0
   -4.1559   -1.4372    0.0000 C   0  0  0  0  0  0  0  0  0  0  0  0
   -3.6250   -2.8401    0.0000 C   0  0  0  0  0  0  0  0  0  0  0  0
   -2.1446   -3.0818    0.0000 C   0  0  0  0  0  0  0  0  0  0  0  0
   -1.6137   -4.4847    0.0000 O   0  0  0  0  0  0  0  0  0  0  0  0
   -2.5632   -5.6459    0.0000 C   0  0  0  0  0  0  0  0  0  0  0  0
   -5.6363   -1.1955    0.0000 N   0  0  0  0  0  0  0  0  0  0  0  0
   -6.5858   -2.3568    0.0000 C   0  0  0  0  0  0  0  0  0  0  0  0
   -6.1672    0.2074    0.0000 C   0  0  0  0  0  0  0  0  0  0  0  0
   -7.6476    0.4491    0.0000 C   0  0  0  0  0  0  0  0  0  0  0  0
   -8.1785    1.8520    0.0000 N   0  0  0  0  0  0  0  0  0  0  0  0
   -9.6589    2.0937    0.0000 C   0  0  0  0  0  0  0  0  0  0  0  0
   -7.2290    3.0132    0.0000 C   0  0  0  0  0  0  0  0  0  0  0  0
   -3.7373    1.1269    0.0000 N   0  0  0  0  0  0  0  0  0  0  0  0
   -2.7878    2.2881    0.0000 C   0  0  0  0  0  0  0  0  0  0  0  0
   -1.3074    2.0464    0.0000 O   0  0  0  0  0  0  0  0  0  0  0  0
   -3.3186    3.6910    0.0000 C   0  0  0  0  0  0  0  0  0  0  0  0
   -2.3691    4.8523    0.0000 C   0  0  0  0  0  0  0  0  0  0  0  0
  1  2  1  0
  2  3  1  0
  3  4  2  0
  4  5  1  0
  5  6  2  0
  6  7  1  0
  7  8  2  0
  8  9  1  0
  9 10  2  0
  4 11  1  0
 11 12  2  0
 12 13  1  0
 13 14  2  0
 14 15  1  0
 15 16  2  0
 15 17  1  0
 17 18  1  0
 18 19  2  0
 19 20  1  0
 20 21  2  0
 21 22  1  0
 22 23  2  0
 23 24  1  0
 24 25  1  0
 21 26  1  0
 26 27  1  0
 26 28  1  0
 28 29  1  0
 29 30  1  0
 30 31  1  0
 30 32  1  0
 20 33  1  0
 33 34  1  0
 34 35  2  0
 34 36  1  0
 36 37  2  0
  6  2  1  0
 10  5  1  0
 16 11  1  0
 23 18  1  0
M  END
>  <BrandName>  (365) 
Tagrisso

>  <Applicants>  (365) 
Astrazeneca

>  <CHEMBL_ID>  (365) 
CHEMBL3353410

>  <Canonical_Smiles>  (365) 
Cn1cc(c2c1cccc2)c3ccnc(n3)Nc4cc(c(cc4OC)N(C)CCN(C)C)NC(=O)C=C

>  <Chirality>  (365) 
Achiral Molecule

>  <First_Approval>  (365) 
2015

>  <Phase>  (365) 
4.0

>  <SC_Patent>  (365) 
US-8946235-B2

>  <Synonyms>  (365) 
AZD-9291 | AZD-9291 FREE BASE | AZD9291 | MERELETINIB | OSIMERTINIB | TAGRISSO

>  <Withdrawn>  (365) 
{'', 'Study NCT05693090 in United States was Withdrawn during PHASE1 because This study was withdrawn due to a strategic business decision; no patients were enrolled', 'Study NCT04591002 in Korea, Republic of was Withdrawn during PHASE2 because Further consultation is required, we plan to submit it again as a new project and proceed', 'Study NCT05120960 in unknown country was Withdrawn during PHASE1 because 0 participant accrual', 'Study NCT06093503 in unknown country was Withdrawn during PHASE3 because Strategic considerations'}

>  <Indications>  (365) 
Osimertinib is indicated for the treatment of patients with metastatic epidermal growth factor receptor (EGFR) T790M mutation-positive non-small cell lung cancer (NSCLC), as detected by an FDA- approved test, who have progressed on or after EGFR-TKI therapy.

>  <Type>  (365) 
1

>  <targets_id>  (365) 
P00533

>  <Inchi>  (365) 
InChI=1S/C28H33N7O2/c1-7-27(36)30-22-16-23(26(37-6)17-25(22)34(4)15-14-33(2)3)32-28-29-13-12-21(31-28)20-18-35(5)24-11-9-8-10-19(20)24/h7-13,16-18H,1,14-15H2,2-6H3,(H,30,36)(H,29,31,32)

>  <stdInchikey>  (365) 
DUYJMQONPNNFPI-UHFFFAOYSA-N

>  <csid>  (365) 
31042598

>  <Links>  (365) 
|http://www.chemspider.com/Chemical-Structure.31042598.html|https://www.ebi.ac.uk/chembldb/compound/inspect/CHEMBL3353410|https://pubchem.ncbi.nlm.nih.gov/compound/71496458|https://go.drugbank.com/drugs/DB09330|https://www.rcsb.org/ligand/YY3|https://www.ebi.ac.uk/pdbe-srv/pdbechem/chemicalCompound/show/YY3|https://www.guidetopharmacology.org/GRAC/LigandDisplayForward?7719|https://zinc15.docking.org/substances/ZINC000098023177|https://precision.fda.gov/uniisearch/srs/unii/3C06JJ0Z2O|https://www.bindingdb.org/bind/chemsearch/marvin/MolStructure.jsp?monomerid=50029668

>  <LinkName>  (365) 
|ChemSpider|ChEMBL|PubChem|DrugBank|RCSB|PDBe|Guide to Pharmacology|ZINC|FDA SRS|BindingDB

>  <lig_pdb_ID>  (365) 
YY3

>  <pdb_IDs>  (365) 
4zau 6jwl 6jx0 6jx4 6jxt 6lud 7jxm 7jxp 7jxw 7k1h

>  <indicationDB>  (365) 


>  <uniprotId>  (365) 


>  <indicationG2P>  (365) 
None

>  <MW>  (365) 
499.3

>  <HBA>  (365) 
8

>  <HBD>  (365) 
2

>  <NRB>  (365) 
10

>  <TPSA>  (365) 
87.6

>  <LogP>  (365) 
4.5

>  <RoF>  (365) 
0

>  <Melting point>  (365) 
nan

>  <Targets>  (365) 
EGFR

>  <Kinase families>  (365) 
Tyr

>  <FDA_approved>  (365) 
Y

$$$$
Pacritinib
     RDKit          2D

 35 39  0  0  0  0  0  0  0  0999 V2000
   -8.4443   -0.4155    0.0000 C   0  0  0  0  0  0  0  0  0  0  0  0
   -8.0406    1.0291    0.0000 C   0  0  0  0  0  0  0  0  0  0  0  0
   -6.5876    1.4018    0.0000 C   0  0  0  0  0  0  0  0  0  0  0  0
   -5.5384    0.3298    0.0000 C   0  0  0  0  0  0  0  0  0  0  0  0
   -5.9422   -1.1149    0.0000 C   0  0  0  0  0  0  0  0  0  0  0  0
   -7.3951   -1.4875    0.0000 C   0  0  0  0  0  0  0  0  0  0  0  0
   -4.8044   -2.5320    0.0000 C   0  0  0  0  0  0  0  0  0  0  0  0
   -4.8650   -4.0726    0.0000 C   0  0  0  0  0  0  0  0  0  0  0  0
   -3.8158   -5.1446    0.0000 C   0  0  0  0  0  0  0  0  0  0  0  0
   -2.3628   -4.7719    0.0000 N   0  0  0  0  0  0  0  0  0  0  0  0
   -1.9590   -3.3273    0.0000 C   0  0  0  0  0  0  0  0  0  0  0  0
   -3.4518   -3.1805    0.0000 N   0  0  0  0  0  0  0  0  0  0  0  0
   -0.5061   -2.9546    0.0000 N   0  0  0  0  0  0  0  0  0  0  0  0
    0.7318   -2.1075    0.0000 C   0  0  0  0  0  0  0  0  0  0  0  0
    2.2385   -2.4347    0.0000 C   0  0  0  0  0  0  0  0  0  0  0  0
    3.4764   -1.5876    0.0000 C   0  0  0  0  0  0  0  0  0  0  0  0
    3.3617   -0.0920    0.0000 C   0  0  0  0  0  0  0  0  0  0  0  0
    2.0091    0.5565    0.0000 C   0  0  0  0  0  0  0  0  0  0  0  0
    1.6053   -0.8881    0.0000 C   0  0  0  0  0  0  0  0  0  0  0  0
    1.8944    2.0521    0.0000 C   0  0  0  0  0  0  0  0  0  0  0  0
    1.2751    3.4183    0.0000 O   0  0  0  0  0  0  0  0  0  0  0  0
    0.2259    4.4903    0.0000 C   0  0  0  0  0  0  0  0  0  0  0  0
   -1.1267    5.1388    0.0000 C   0  0  0  0  0  0  0  0  0  0  0  0
   -2.6195    5.2856    0.0000 C   0  0  0  0  0  0  0  0  0  0  0  0
   -4.0724    4.9129    0.0000 C   0  0  0  0  0  0  0  0  0  0  0  0
   -5.3103    4.0658    0.0000 O   0  0  0  0  0  0  0  0  0  0  0  0
   -6.1838    2.8464    0.0000 C   0  0  0  0  0  0  0  0  0  0  0  0
    4.5996    0.7552    0.0000 O   0  0  0  0  0  0  0  0  0  0  0  0
    5.9521    0.1067    0.0000 C   0  0  0  0  0  0  0  0  0  0  0  0
    7.1900    0.9538    0.0000 C   0  0  0  0  0  0  0  0  0  0  0  0
    8.5426    0.3053    0.0000 N   0  0  0  0  0  0  0  0  0  0  0  0
    9.8623    1.0184    0.0000 C   0  0  0  0  0  0  0  0  0  0  0  0
   10.9483   -0.0163    0.0000 C   0  0  0  0  0  0  0  0  0  0  0  0
   10.2998   -1.3689    0.0000 C   0  0  0  0  0  0  0  0  0  0  0  0
    8.8130   -1.1701    0.0000 C   0  0  0  0  0  0  0  0  0  0  0  0
  1  2  2  0
  2  3  1  0
  3  4  2  0
  4  5  1  0
  5  6  2  0
  5  7  1  0
  7  8  2  0
  8  9  1  0
  9 10  2  0
 10 11  1  0
 11 12  2  0
 11 13  1  0
 13 14  1  0
 14 15  2  0
 15 16  1  0
 16 17  2  0
 17 18  1  0
 18 19  2  0
 18 20  1  0
 20 21  1  0
 21 22  1  0
 22 23  1  0
 23 24  2  0
 24 25  1  0
 25 26  1  0
 26 27  1  0
 17 28  1  0
 28 29  1  0
 29 30  1  0
 30 31  1  0
 31 32  1  0
 32 33  1  0
 33 34  1  0
 34 35  1  0
  6  1  1  0
 27  3  1  0
 12  7  1  0
 19 14  1  0
 35 31  1  0
M  END
>  <BrandName>  (366) 


>  <Applicants>  (366) 
Cell Therapeutics

>  <CHEMBL_ID>  (366) 
CHEMBL2035187

>  <Canonical_Smiles>  (366) 
c1cc2cc(c1)-c3ccnc(n3)Nc4ccc(c(c4)COC/C=C/COC2)OCCN5CCCC5

>  <Chirality>  (366) 
Achiral Molecule

>  <First_Approval>  (366) 
2022

>  <Phase>  (366) 
4.0

>  <SC_Patent>  (366) 
US-8153632-B2

>  <Synonyms>  (366) 
ONX-0803 | PACRITINIB | SB-1518 | SB1518

>  <Withdrawn>  (366) 
{'', 'Study NCT02677948 in United States was Withdrawn during PHASE1 because FDA has placed all trials involving Pacritinib on Full Clinical Hold'}

>  <Indications>  (366) 
On February 2022, FDA approved pacritinib to treat intermediate or high-risk primary or secondary myelofibrosis in adults with low platelets

>  <Type>  (366) 
1

>  <targets_id>  (366) 
O60674

>  <Inchi>  (366) 
InChI=1S/C28H32N4O3/c1-2-13-32(12-1)14-17-35-27-9-8-25-19-24(27)21-34-16-4-3-15-33-20-22-6-5-7-23(18-22)26-10-11-29-28(30-25)31-26/h3-11,18-19H,1-2,12-17,20-21H2,(H,29,30,31)/b4-3+

>  <stdInchikey>  (366) 
HWXVIOGONBBTBY-ONEGZZNKSA-N

>  <csid>  (366) 
28518965

>  <Links>  (366) 
|http://www.chemspider.com/Chemical-Structure.28518965.html|https://www.ebi.ac.uk/chembldb/compound/inspect/CHEMBL2035187|https://pubchem.ncbi.nlm.nih.gov/compound/46216796|https://go.drugbank.com/drugs/DB11697|https://www.rcsb.org/ligand/6T3|https://www.ebi.ac.uk/pdbe-srv/pdbechem/chemicalCompound/show/6T3|https://www.guidetopharmacology.org/GRAC/LigandDisplayForward?7793|https://zinc15.docking.org/substances/ZINC000043153645|https://precision.fda.gov/uniisearch/srs/unii/G22N65IL3O|https://www.bindingdb.org/bind/chemsearch/marvin/MolStructure.jsp?monomerid=50210177

>  <LinkName>  (366) 
|ChemSpider|ChEMBL|PubChem|DrugBank|RCSB|PDBe|Guide to Pharmacology|ZINC|FDA SRS|BindingDB

>  <lig_pdb_ID>  (366) 
6T3

>  <pdb_IDs>  (366) 
5lbz 8bpv

>  <indicationDB>  (366) 


>  <uniprotId>  (366) 


>  <indicationG2P>  (366) 
None

>  <MW>  (366) 
472.2

>  <HBA>  (366) 
7

>  <HBD>  (366) 
1

>  <NRB>  (366) 
4

>  <TPSA>  (366) 
68.7

>  <LogP>  (366) 
5.0

>  <RoF>  (366) 
0

>  <Melting point>  (366) 
nan

>  <Targets>  (366) 
JAK2

>  <Kinase families>  (366) 
Tyr

>  <FDA_approved>  (366) 
Y

$$$$
Palbociclib
     RDKit          2D

 33 37  0  0  0  0  0  0  0  0999 V2000
   -3.0248   -3.7842    0.0000 C   0  0  0  0  0  0  0  0  0  0  0  0
   -3.3339   -2.3164    0.0000 C   0  0  0  0  0  0  0  0  0  0  0  0
   -2.2173   -1.3148    0.0000 C   0  0  0  0  0  0  0  0  0  0  0  0
   -0.7916   -1.7810    0.0000 C   0  0  0  0  0  0  0  0  0  0  0  0
    0.3250   -0.7794    0.0000 N   0  0  0  0  0  0  0  0  0  0  0  0
    0.0160    0.6884    0.0000 C   0  0  0  0  0  0  0  0  0  0  0  0
   -1.4097    1.1546    0.0000 N   0  0  0  0  0  0  0  0  0  0  0  0
   -2.5264    0.1530    0.0000 C   0  0  0  0  0  0  0  0  0  0  0  0
   -3.9521    0.6192    0.0000 N   0  0  0  0  0  0  0  0  0  0  0  0
   -5.0687   -0.3823    0.0000 C   0  0  0  0  0  0  0  0  0  0  0  0
   -6.4944    0.0839    0.0000 O   0  0  0  0  0  0  0  0  0  0  0  0
   -4.7596   -1.8502    0.0000 C   0  0  0  0  0  0  0  0  0  0  0  0
   -5.8762   -2.8517    0.0000 C   0  0  0  0  0  0  0  0  0  0  0  0
   -5.5671   -4.3196    0.0000 O   0  0  0  0  0  0  0  0  0  0  0  0
   -7.3019   -2.3855    0.0000 C   0  0  0  0  0  0  0  0  0  0  0  0
   -4.2612    2.0870    0.0000 C   0  0  0  0  0  0  0  0  0  0  0  0
   -5.6303    2.6997    0.0000 C   0  0  0  0  0  0  0  0  0  0  0  0
   -5.4707    4.1912    0.0000 C   0  0  0  0  0  0  0  0  0  0  0  0
   -4.0029    4.5003    0.0000 C   0  0  0  0  0  0  0  0  0  0  0  0
   -3.2554    3.1999    0.0000 C   0  0  0  0  0  0  0  0  0  0  0  0
    1.1326    1.6900    0.0000 N   0  0  0  0  0  0  0  0  0  0  0  0
    2.5583    1.2237    0.0000 C   0  0  0  0  0  0  0  0  0  0  0  0
    2.8674   -0.2441    0.0000 C   0  0  0  0  0  0  0  0  0  0  0  0
    4.2931   -0.7103    0.0000 C   0  0  0  0  0  0  0  0  0  0  0  0
    5.4097    0.2913    0.0000 C   0  0  0  0  0  0  0  0  0  0  0  0
    5.1006    1.7591    0.0000 C   0  0  0  0  0  0  0  0  0  0  0  0
    3.6749    2.2253    0.0000 N   0  0  0  0  0  0  0  0  0  0  0  0
    6.8354   -0.1750    0.0000 N   0  0  0  0  0  0  0  0  0  0  0  0
    7.1445   -1.6428    0.0000 C   0  0  0  0  0  0  0  0  0  0  0  0
    8.5702   -2.1090    0.0000 C   0  0  0  0  0  0  0  0  0  0  0  0
    9.6868   -1.1074    0.0000 N   0  0  0  0  0  0  0  0  0  0  0  0
    9.3777    0.3604    0.0000 C   0  0  0  0  0  0  0  0  0  0  0  0
    7.9520    0.8266    0.0000 C   0  0  0  0  0  0  0  0  0  0  0  0
  1  2  1  0
  2  3  1  0
  3  4  2  0
  4  5  1  0
  5  6  2  0
  6  7  1  0
  7  8  2  0
  8  9  1  0
  9 10  1  0
 10 11  2  0
 10 12  1  0
 12 13  1  0
 13 14  2  0
 13 15  1  0
  9 16  1  0
 16 17  1  0
 17 18  1  0
 18 19  1  0
 19 20  1  0
  6 21  1  0
 21 22  1  0
 22 23  2  0
 23 24  1  0
 24 25  2  0
 25 26  1  0
 26 27  2  0
 25 28  1  0
 28 29  1  0
 29 30  1  0
 30 31  1  0
 31 32  1  0
 32 33  1  0
 12  2  2  0
  8  3  1  0
 20 16  1  0
 27 22  1  0
 33 28  1  0
M  END
>  <BrandName>  (367) 
Ibrance

>  <Applicants>  (367) 
Pfizer

>  <CHEMBL_ID>  (367) 
CHEMBL189963

>  <Canonical_Smiles>  (367) 
Cc1c2cnc(nc2n(c(=O)c1C(=O)C)C3CCCC3)Nc4ccc(cn4)N5CCNCC5

>  <Chirality>  (367) 
Achiral Molecule

>  <First_Approval>  (367) 
2015

>  <Phase>  (367) 
4.0

>  <SC_Patent>  (367) 
US-6936612-B2

>  <Synonyms>  (367) 
IBRANCE | PALBOCICLIB | PD-0332991

>  <Withdrawn>  (367) 
{'', 'Study NCT05238831 in unknown country was Withdrawn during EARLY_PHASE1 because Withdrawn due to a change in therapeutic interventions', 'Study NCT05371275 in Germany was Withdrawn during PHASE2 because Study was withdrawn due to challenges in patient enrollment', 'Study NCT03123744 in United States was Withdrawn during PHASE2 because No study funding available', 'Study NCT04870034 in United States was Withdrawn during EARLY_PHASE1 because Issues recruiting', 'Study NCT03377101 in unknown country was Withdrawn during PHASE2 because change in study design', 'Study NCT04872608 in United States was Withdrawn during PHASE1 because The sponsor closed the study due to discontinuing their onapristone program', 'Study NCT05176288 in unknown country was Withdrawn during PHASE2 because The overall protocol will be changed in a new amendment, which will be resubmitted under the new IND', 'Study NCT05655598 in United States was Withdrawn during PHASE1 because Lack of accrual', 'Study NCT05691400 in unknown country was Withdrawn during PHASE4 because funding was not secured', 'Study NCT04498520 in unknown country was Withdrawn during PHASE1 because Funding', 'Study NCT04220476 in unknown country was Withdrawn during PHASE2 because Initiating a new study with revised Statistics', 'Study NCT04585724 in unknown country was Withdrawn during PHASE1 because Closed due to low (0) accrual'}

>  <Indications>  (367) 
Palbociclib is indicated in combination with letrozole for the treatment of postmenopausal women with estrogen receptor (ER)-positive, human epidermal growth factor receptor 2 (HER2)-negative advanced breast cancer as initial endocrine-based therapy for their metastatic disease. This indication is approved under accelerated approval based on progression-free survival (PFS). Continued approval for this indication may be contingent upon verification and description of clinical benefit in a confirmatory trial.

>  <Type>  (367) 
1

>  <targets_id>  (367) 
P11802|Q00534

>  <Inchi>  (367) 
InChI=1S/C24H29N7O2/c1-15-19-14-27-24(28-20-8-7-18(13-26-20)30-11-9-25-10-12-30)29-22(19)31(17-5-3-4-6-17)23(33)21(15)16(2)32/h7-8,13-14,17,25H,3-6,9-12H2,1-2H3,(H,26,27,28,29)

>  <stdInchikey>  (367) 
AHJRHEGDXFFMBM-UHFFFAOYSA-N

>  <csid>  (367) 
4487437

>  <Links>  (367) 
|http://www.chemspider.com/Chemical-Structure.4487437.html|https://www.ebi.ac.uk/chembldb/compound/inspect/CHEMBL189963|https://pubchem.ncbi.nlm.nih.gov/compound/5330286|https://go.drugbank.com/drugs/DB09073|https://www.rcsb.org/ligand/LQQ|https://www.ebi.ac.uk/pdbe-srv/pdbechem/chemicalCompound/show/LQQ|https://www.guidetopharmacology.org/GRAC/LigandDisplayForward?7380|https://zinc15.docking.org/substances/ZINC000003938686|https://precision.fda.gov/uniisearch/srs/unii/G9ZF61LE7G|https://www.bindingdb.org/bind/chemsearch/marvin/MolStructure.jsp?monomerid=6309

>  <LinkName>  (367) 
|ChemSpider|ChEMBL|PubChem|DrugBank|RCSB|PDBe|Guide to Pharmacology|ZINC|FDA SRS|BindingDB

>  <lig_pdb_ID>  (367) 
LQQ

>  <pdb_IDs>  (367) 
2euf 5l2i 7n7o

>  <indicationDB>  (367) 


>  <uniprotId>  (367) 


>  <indicationG2P>  (367) 
None

>  <MW>  (367) 
447.2

>  <HBA>  (367) 
9

>  <HBD>  (367) 
2

>  <NRB>  (367) 
5

>  <TPSA>  (367) 
105.0

>  <LogP>  (367) 
3.0

>  <RoF>  (367) 
0

>  <Melting point>  (367) 
263-266 C

>  <Targets>  (367) 
CDK4; CDK6

>  <Kinase families>  (367) 
CMGC

>  <FDA_approved>  (367) 
Y

$$$$
Bosutinib
     RDKit          2D

 36 39  0  0  0  0  0  0  0  0999 V2000
  -12.5897   -0.0020    0.0000 C   0  0  0  0  0  0  0  0  0  0  0  0
  -11.1128   -0.2640    0.0000 N   0  0  0  0  0  0  0  0  0  0  0  0
  -10.1474    0.8841    0.0000 C   0  0  0  0  0  0  0  0  0  0  0  0
   -8.6705    0.6220    0.0000 C   0  0  0  0  0  0  0  0  0  0  0  0
   -8.1589   -0.7880    0.0000 N   0  0  0  0  0  0  0  0  0  0  0  0
   -9.1243   -1.9361    0.0000 C   0  0  0  0  0  0  0  0  0  0  0  0
  -10.6013   -1.6741    0.0000 C   0  0  0  0  0  0  0  0  0  0  0  0
   -6.6820   -1.0501    0.0000 C   0  0  0  0  0  0  0  0  0  0  0  0
   -5.7166    0.0980    0.0000 C   0  0  0  0  0  0  0  0  0  0  0  0
   -4.2397   -0.1640    0.0000 C   0  0  0  0  0  0  0  0  0  0  0  0
   -3.2743    0.9840    0.0000 O   0  0  0  0  0  0  0  0  0  0  0  0
   -1.7973    0.7220    0.0000 C   0  0  0  0  0  0  0  0  0  0  0  0
   -1.2858   -0.6881    0.0000 C   0  0  0  0  0  0  0  0  0  0  0  0
    0.1911   -0.9501    0.0000 C   0  0  0  0  0  0  0  0  0  0  0  0
    1.1565    0.1979    0.0000 C   0  0  0  0  0  0  0  0  0  0  0  0
    0.6450    1.6080    0.0000 C   0  0  0  0  0  0  0  0  0  0  0  0
   -0.8320    1.8700    0.0000 C   0  0  0  0  0  0  0  0  0  0  0  0
   -1.3435    3.2801    0.0000 O   0  0  0  0  0  0  0  0  0  0  0  0
   -0.3781    4.4282    0.0000 C   0  0  0  0  0  0  0  0  0  0  0  0
    2.6335   -0.0641    0.0000 C   0  0  0  0  0  0  0  0  0  0  0  0
    3.1450   -1.4742    0.0000 C   0  0  0  0  0  0  0  0  0  0  0  0
    2.1796   -2.6222    0.0000 C   0  0  0  0  0  0  0  0  0  0  0  0
    0.7027   -2.3602    0.0000 N   0  0  0  0  0  0  0  0  0  0  0  0
    4.6219   -1.7362    0.0000 C   0  0  0  0  0  0  0  0  0  0  0  0
    6.0989   -1.9982    0.0000 N   0  0  0  0  0  0  0  0  0  0  0  0
    3.5989    1.0840    0.0000 N   0  0  0  0  0  0  0  0  0  0  0  0
    5.0758    0.8219    0.0000 C   0  0  0  0  0  0  0  0  0  0  0  0
    5.5873   -0.5881    0.0000 C   0  0  0  0  0  0  0  0  0  0  0  0
    7.0643   -0.8502    0.0000 C   0  0  0  0  0  0  0  0  0  0  0  0
    8.0297    0.2979    0.0000 C   0  0  0  0  0  0  0  0  0  0  0  0
    7.5181    1.7080    0.0000 C   0  0  0  0  0  0  0  0  0  0  0  0
    6.0412    1.9700    0.0000 C   0  0  0  0  0  0  0  0  0  0  0  0
    5.5296    3.3801    0.0000 Cl  0  0  0  0  0  0  0  0  0  0  0  0
    9.5066    0.0359    0.0000 Cl  0  0  0  0  0  0  0  0  0  0  0  0
    7.5758   -2.2602    0.0000 O   0  0  0  0  0  0  0  0  0  0  0  0
    9.0528   -2.5223    0.0000 C   0  0  0  0  0  0  0  0  0  0  0  0
  1  2  1  0
  2  3  1  0
  3  4  1  0
  4  5  1  0
  5  6  1  0
  6  7  1  0
  5  8  1  0
  8  9  1  0
  9 10  1  0
 10 11  1  0
 11 12  1  0
 12 13  2  0
 13 14  1  0
 14 15  2  0
 15 16  1  0
 16 17  2  0
 17 18  1  0
 18 19  1  0
 15 20  1  0
 20 21  2  0
 21 22  1  0
 22 23  2  0
 21 24  1  0
 24 25  3  0
 20 26  1  0
 26 27  1  0
 27 28  2  0
 28 29  1  0
 29 30  2  0
 30 31  1  0
 31 32  2  0
 32 33  1  0
 30 34  1  0
 29 35  1  0
 35 36  1  0
  7  2  1  0
 17 12  1  0
 23 14  1  0
 32 27  1  0
M  END
>  <BrandName>  (368) 
Bosulif

>  <Applicants>  (368) 
Wyeth

>  <CHEMBL_ID>  (368) 
CHEMBL288441

>  <Canonical_Smiles>  (368) 
CN1CCN(CC1)CCCOc2cc3c(cc2OC)c(c(cn3)C#N)Nc4cc(c(cc4Cl)Cl)OC

>  <Chirality>  (368) 
Achiral Molecule

>  <First_Approval>  (368) 
2012

>  <Phase>  (368) 
4.0

>  <SC_Patent>  (368) 
US-7417148-B2

>  <Synonyms>  (368) 
BOSULIF | BOSUTINIB | SK-606 | SKI-606

>  <Withdrawn>  (368) 
{'', 'Study NCT04655391 in United States was Withdrawn during PHASE1 because Drug availability'}

>  <Indications>  (368) 
Treatment of chronic, accelerated, or blast phase Philadelphia chromosome-positive (Ph+) chronic myelogenous leukemia (CML) with resistance or intolerance to prior therapy in adult patients.

>  <Type>  (368) 
1

>  <targets_id>  (368) 
P11274|P00519|P07948|P08631|P12931|P24941|Q02750|P36507|Q9Y2U5|Q13555

>  <Inchi>  (368) 
InChI=1S/C26H29Cl2N5O3/c1-32-6-8-33(9-7-32)5-4-10-36-25-13-21-18(11-24(25)35-3)26(17(15-29)16-30-21)31-22-14-23(34-2)20(28)12-19(22)27/h11-14,16H,4-10H2,1-3H3,(H,30,31)

>  <stdInchikey>  (368) 
UBPYILGKFZZVDX-UHFFFAOYSA-N

>  <csid>  (368) 
4486102

>  <Links>  (368) 
|http://www.chemspider.com/Chemical-Structure.4486102.html|https://www.ebi.ac.uk/chembldb/compound/inspect/CHEMBL288441|https://pubchem.ncbi.nlm.nih.gov/compound/5328940|https://go.drugbank.com/drugs/DB06616|https://www.rcsb.org/ligand/DB8|https://www.ebi.ac.uk/pdbe-srv/pdbechem/chemicalCompound/show/DB8|https://www.guidetopharmacology.org/GRAC/LigandDisplayForward?5710|https://zinc15.docking.org/substances/ZINC000022448983|https://precision.fda.gov/uniisearch/srs/unii/5018V4AEZ0|https://www.bindingdb.org/bind/chemsearch/marvin/MolStructure.jsp?monomerid=4552

>  <LinkName>  (368) 
|ChemSpider|ChEMBL|PubChem|DrugBank|RCSB|PDBe|Guide to Pharmacology|ZINC|FDA SRS|BindingDB

>  <lig_pdb_ID>  (368) 
DB8

>  <pdb_IDs>  (368) 
3soa 3ue4 4mxo 4mxx 4mxy 4mxz 4qmn 5ajq 5i9x 5vc3 5vcy 6fdy 6op9 8r4q

>  <indicationDB>  (368) 


>  <uniprotId>  (368) 


>  <indicationG2P>  (368) 
None

>  <MW>  (368) 
529.2

>  <HBA>  (368) 
8

>  <HBD>  (368) 
1

>  <NRB>  (368) 
9

>  <TPSA>  (368) 
82.9

>  <LogP>  (368) 
5.2

>  <RoF>  (368) 
2

>  <Melting point>  (368) 
131 - 134 C

>  <Targets>  (368) 
BCR; ABL1; LYN; HCK; SRC; CDK2; MAP2K1; MAP2K2; MAP3K2; CAMK2G

>  <Kinase families>  (368) 
CAMK<br>Tyr<br>Atypical<br>STE<br>CMGC

>  <FDA_approved>  (368) 
Y

$$$$
Brigatinib
     RDKit          2D

 40 44  0  0  0  0  0  0  0  0999 V2000
  -13.2331   -0.7910    0.0000 C   0  0  0  0  0  0  0  0  0  0  0  0
  -11.7428   -0.6209    0.0000 N   0  0  0  0  0  0  0  0  0  0  0  0
  -11.1449    0.7548    0.0000 C   0  0  0  0  0  0  0  0  0  0  0  0
   -9.6546    0.9248    0.0000 C   0  0  0  0  0  0  0  0  0  0  0  0
   -8.7622   -0.2808    0.0000 N   0  0  0  0  0  0  0  0  0  0  0  0
   -9.3600   -1.6565    0.0000 C   0  0  0  0  0  0  0  0  0  0  0  0
  -10.8504   -1.8266    0.0000 C   0  0  0  0  0  0  0  0  0  0  0  0
   -7.2718   -0.1107    0.0000 C   0  0  0  0  0  0  0  0  0  0  0  0
   -6.3794   -1.3164    0.0000 C   0  0  0  0  0  0  0  0  0  0  0  0
   -4.8891   -1.1463    0.0000 C   0  0  0  0  0  0  0  0  0  0  0  0
   -4.2912    0.2294    0.0000 N   0  0  0  0  0  0  0  0  0  0  0  0
   -5.1836    1.4350    0.0000 C   0  0  0  0  0  0  0  0  0  0  0  0
   -6.6740    1.2650    0.0000 C   0  0  0  0  0  0  0  0  0  0  0  0
   -2.8009    0.3995    0.0000 C   0  0  0  0  0  0  0  0  0  0  0  0
   -1.9084   -0.8061    0.0000 C   0  0  0  0  0  0  0  0  0  0  0  0
   -0.4181   -0.6361    0.0000 C   0  0  0  0  0  0  0  0  0  0  0  0
    0.1798    0.7396    0.0000 C   0  0  0  0  0  0  0  0  0  0  0  0
   -0.7126    1.9453    0.0000 C   0  0  0  0  0  0  0  0  0  0  0  0
   -2.2030    1.7752    0.0000 C   0  0  0  0  0  0  0  0  0  0  0  0
   -0.1148    3.3209    0.0000 O   0  0  0  0  0  0  0  0  0  0  0  0
   -1.0072    4.5266    0.0000 C   0  0  0  0  0  0  0  0  0  0  0  0
    1.6701    0.9097    0.0000 N   0  0  0  0  0  0  0  0  0  0  0  0
    2.5626   -0.2959    0.0000 C   0  0  0  0  0  0  0  0  0  0  0  0
    1.9647   -1.6716    0.0000 N   0  0  0  0  0  0  0  0  0  0  0  0
    2.8571   -2.8773    0.0000 C   0  0  0  0  0  0  0  0  0  0  0  0
    4.3475   -2.7072    0.0000 C   0  0  0  0  0  0  0  0  0  0  0  0
    4.9454   -1.3315    0.0000 C   0  0  0  0  0  0  0  0  0  0  0  0
    4.0529   -0.1259    0.0000 N   0  0  0  0  0  0  0  0  0  0  0  0
    6.4357   -1.1614    0.0000 N   0  0  0  0  0  0  0  0  0  0  0  0
    7.0336    0.2143    0.0000 C   0  0  0  0  0  0  0  0  0  0  0  0
    6.1411    1.4199    0.0000 C   0  0  0  0  0  0  0  0  0  0  0  0
    6.7390    2.7956    0.0000 C   0  0  0  0  0  0  0  0  0  0  0  0
    8.2293    2.9657    0.0000 C   0  0  0  0  0  0  0  0  0  0  0  0
    9.1218    1.7601    0.0000 C   0  0  0  0  0  0  0  0  0  0  0  0
    8.5239    0.3844    0.0000 C   0  0  0  0  0  0  0  0  0  0  0  0
    9.4163   -0.8213    0.0000 P   0  0  0  0  0  0  0  0  0  0  0  0
   10.3088   -2.0269    0.0000 O   0  0  0  0  0  0  0  0  0  0  0  0
    8.2107   -1.7137    0.0000 C   0  0  0  0  0  0  0  0  0  0  0  0
   10.6220    0.0712    0.0000 C   0  0  0  0  0  0  0  0  0  0  0  0
    5.2399   -3.9128    0.0000 Cl  0  0  0  0  0  0  0  0  0  0  0  0
  1  2  1  0
  2  3  1  0
  3  4  1  0
  4  5  1  0
  5  6  1  0
  6  7  1  0
  5  8  1  0
  8  9  1  0
  9 10  1  0
 10 11  1  0
 11 12  1  0
 12 13  1  0
 11 14  1  0
 14 15  2  0
 15 16  1  0
 16 17  2  0
 17 18  1  0
 18 19  2  0
 18 20  1  0
 20 21  1  0
 17 22  1  0
 22 23  1  0
 23 24  2  0
 24 25  1  0
 25 26  2  0
 26 27  1  0
 27 28  2  0
 27 29  1  0
 29 30  1  0
 30 31  2  0
 31 32  1  0
 32 33  2  0
 33 34  1  0
 34 35  2  0
 35 36  1  0
 36 37  2  0
 36 38  1  0
 36 39  1  0
 26 40  1  0
  7  2  1  0
 13  8  1  0
 19 14  1  0
 28 23  1  0
 35 30  1  0
M  END
>  <BrandName>  (369) 
Alunbrig

>  <Applicants>  (369) 
Ariad Pharmaceuticals

>  <CHEMBL_ID>  (369) 
CHEMBL3545311

>  <Canonical_Smiles>  (369) 
CN1CCN(CC1)C2CCN(CC2)c3ccc(c(c3)OC)Nc4ncc(c(n4)Nc5ccccc5P(=O)(C)C)Cl

>  <Chirality>  (369) 
Achiral Molecule

>  <First_Approval>  (369) 
2017

>  <Phase>  (369) 
4.0

>  <SC_Patent>  (369) 
US-9012462-B2

>  <Synonyms>  (369) 
ALUNBRIG | AP-26113 | AP26113 | BRIGATINIB

>  <Withdrawn>  (369) 
{''}

>  <Indications>  (369) 
The anaplastic lymphoma kinase positive, metastatic non-small cell lung cancer (ALK+ NSCLC), represents only 3-5% of the NSCLC cancer cases, but the ALK mutation, overexpression and presence in several oncogenic fusion proteins in solid and hematologic tumors have pointed out the importance as well as its potential as a cancer therapy target. The ALK-related cases of NSCLC are associated with the presence of the fusion gene EML4-ALK which fused the ALK protein with the echinoderm microtubule-associated protein like-4 whose original function is the correct formation of microtubules. The presence of the aberrant fusion protein results in abnormal signaling that provokes increased cell growth, proliferation and survival. Crizotinib is indicated for the treatment of such cases but the presence of ALK kinase domain mutations confer resistance to the treatment. Thus, brigatinib is indicated for the treatment of patients with ALK+ NSCLC with intolerance to Crizotinib.

>  <Type>  (369) 
1

>  <targets_id>  (369) 
Q9UM73|P00533

>  <Inchi>  (369) 
InChI=1S/C29H39ClN7O2P/c1-35-15-17-37(18-16-35)21-11-13-36(14-12-21)22-9-10-24(26(19-22)39-2)33-29-31-20-23(30)28(34-29)32-25-7-5-6-8-27(25)40(3,4)38/h5-10,19-21H,11-18H2,1-4H3,(H2,31,32,33,34)

>  <stdInchikey>  (369) 
AILRADAXUVEEIR-UHFFFAOYSA-N

>  <csid>  (369) 
34982928

>  <Links>  (369) 
|http://www.chemspider.com/Chemical-Structure.34982928.html|https://www.ebi.ac.uk/chembldb/compound/inspect/CHEMBL3545311|https://pubchem.ncbi.nlm.nih.gov/compound/68165256|https://go.drugbank.com/drugs/DB12267|https://www.rcsb.org/ligand/6GY|https://www.ebi.ac.uk/pdbe-srv/pdbechem/chemicalCompound/show/6GY|https://zinc15.docking.org/substances/ZINC000148723177|https://precision.fda.gov/uniisearch/srs/unii/HYW8DB273J|https://www.bindingdb.org/bind/chemsearch/marvin/MolStructure.jsp?monomerid=50185140

>  <LinkName>  (369) 
|ChemSpider|ChEMBL|PubChem|DrugBank|RCSB|PDBe|ZINC|FDA SRS|BindingDB

>  <lig_pdb_ID>  (369) 
6GY

>  <pdb_IDs>  (369) 
6mx8 7aem 7zym 8h7x

>  <indicationDB>  (369) 


>  <uniprotId>  (369) 


>  <indicationG2P>  (369) 


>  <MW>  (369) 
583.3

>  <HBA>  (369) 
9

>  <HBD>  (369) 
2

>  <NRB>  (369) 
8

>  <TPSA>  (369) 
85.9

>  <LogP>  (369) 
5.1

>  <RoF>  (369) 
2

>  <Melting point>  (369) 
nan

>  <Targets>  (369) 
ALK; EGFR

>  <Kinase families>  (369) 
Tyr

>  <FDA_approved>  (369) 
Y

$$$$
Ripretinib
     RDKit          2D

 33 36  0  0  0  0  0  0  0  0999 V2000
    5.7613   -2.4270    0.0000 C   0  0  0  0  0  0  0  0  0  0  0  0
    5.4439   -0.9609    0.0000 C   0  0  0  0  0  0  0  0  0  0  0  0
    4.0156   -0.5027    0.0000 N   0  0  0  0  0  0  0  0  0  0  0  0
    3.6983    0.9633    0.0000 C   0  0  0  0  0  0  0  0  0  0  0  0
    4.8093    1.9712    0.0000 C   0  0  0  0  0  0  0  0  0  0  0  0
    4.4919    3.4372    0.0000 C   0  0  0  0  0  0  0  0  0  0  0  0
    3.0636    3.8954    0.0000 N   0  0  0  0  0  0  0  0  0  0  0  0
    1.9526    2.8876    0.0000 C   0  0  0  0  0  0  0  0  0  0  0  0
    2.2700    1.4215    0.0000 C   0  0  0  0  0  0  0  0  0  0  0  0
    1.1590    0.4137    0.0000 C   0  0  0  0  0  0  0  0  0  0  0  0
    1.4764   -1.0524    0.0000 C   0  0  0  0  0  0  0  0  0  0  0  0
    2.9047   -1.5106    0.0000 C   0  0  0  0  0  0  0  0  0  0  0  0
    3.2220   -2.9766    0.0000 O   0  0  0  0  0  0  0  0  0  0  0  0
    0.3654   -2.0602    0.0000 C   0  0  0  0  0  0  0  0  0  0  0  0
   -1.0629   -1.6020    0.0000 C   0  0  0  0  0  0  0  0  0  0  0  0
   -2.1739   -2.6099    0.0000 C   0  0  0  0  0  0  0  0  0  0  0  0
   -1.8565   -4.0759    0.0000 C   0  0  0  0  0  0  0  0  0  0  0  0
   -0.4282   -4.5341    0.0000 C   0  0  0  0  0  0  0  0  0  0  0  0
    0.6828   -3.5263    0.0000 C   0  0  0  0  0  0  0  0  0  0  0  0
    2.1111   -3.9845    0.0000 Br  0  0  0  0  0  0  0  0  0  0  0  0
   -2.9675   -5.0838    0.0000 F   0  0  0  0  0  0  0  0  0  0  0  0
   -3.6022   -2.1517    0.0000 N   0  0  0  0  0  0  0  0  0  0  0  0
   -3.9195   -0.6857    0.0000 C   0  0  0  0  0  0  0  0  0  0  0  0
   -2.8085    0.3222    0.0000 O   0  0  0  0  0  0  0  0  0  0  0  0
   -5.3478   -0.2275    0.0000 N   0  0  0  0  0  0  0  0  0  0  0  0
   -5.6652    1.2386    0.0000 C   0  0  0  0  0  0  0  0  0  0  0  0
   -4.5542    2.2464    0.0000 C   0  0  0  0  0  0  0  0  0  0  0  0
   -4.8715    3.7125    0.0000 C   0  0  0  0  0  0  0  0  0  0  0  0
   -6.2999    4.1707    0.0000 C   0  0  0  0  0  0  0  0  0  0  0  0
   -7.4108    3.1628    0.0000 C   0  0  0  0  0  0  0  0  0  0  0  0
   -7.0935    1.6968    0.0000 C   0  0  0  0  0  0  0  0  0  0  0  0
    5.6029    4.4451    0.0000 N   0  0  0  0  0  0  0  0  0  0  0  0
    7.0312    3.9869    0.0000 C   0  0  0  0  0  0  0  0  0  0  0  0
  1  2  1  0
  2  3  1  0
  3  4  1  0
  4  5  2  0
  5  6  1  0
  6  7  2  0
  7  8  1  0
  8  9  2  0
  9 10  1  0
 10 11  2  0
 11 12  1  0
 12 13  2  0
 11 14  1  0
 14 15  2  0
 15 16  1  0
 16 17  2  0
 17 18  1  0
 18 19  2  0
 19 20  1  0
 17 21  1  0
 16 22  1  0
 22 23  1  0
 23 24  2  0
 23 25  1  0
 25 26  1  0
 26 27  2  0
 27 28  1  0
 28 29  2  0
 29 30  1  0
 30 31  2  0
  6 32  1  0
 32 33  1  0
 12  3  1  0
  9  4  1  0
 19 14  1  0
 31 26  1  0
M  END
>  <BrandName>  (370) 
Qinlock

>  <Applicants>  (370) 
Deciphera Pharmaceuticals

>  <CHEMBL_ID>  (370) 
CHEMBL4216467

>  <Canonical_Smiles>  (370) 
CCn1c2cc(ncc2cc(c1=O)c3cc(c(cc3Br)F)NC(=O)Nc4ccccc4)NC

>  <Chirality>  (370) 
Achiral Molecule

>  <First_Approval>  (370) 
2020

>  <Phase>  (370) 
4.0

>  <SC_Patent>  (370) 
US-8188113-B2

>  <Synonyms>  (370) 
DCC-2618 | QINLOCK | RIPRETINIB

>  <Withdrawn>  (370) 
{''}

>  <Indications>  (370) 
Ripretinib (DCC-2618) is an orally bioavailable, potent pan-KIT and PDGFR&alpha; kinase inhibitor being developed by Dicephera Pharmaceuticals.  It is in clinical development for the treatment of  malignancies that are driven by KIT and/or PDGFR&alpha;, for example gastrointestinal stromal tumors, glioblastoma multiforme and systemic mastocytosis. Ripretinib has activity across a broad range of resistance mutations in its target kinases, that emerge in response to imatinib treatment. Ripretinib binds to the 'switch pocket' of KIT, a domain that regulates the enzyme's catalytic conformation. Compounds that act in this way are often referred to as switch control inhibitors.

>  <Type>  (370) 
nan

>  <targets_id>  (370) 
nan

>  <Inchi>  (370) 
InChI=1S/C24H21BrFN5O2/c1-3-31-21-12-22(27-2)28-13-14(21)9-17(23(31)32)16-10-20(19(26)11-18(16)25)30-24(33)29-15-7-5-4-6-8-15/h4-13H,3H2,1-2H3,(H,27,28)(H2,29,30,33)

>  <stdInchikey>  (370) 
CEFJVGZHQAGLHS-UHFFFAOYSA-N

>  <csid>  (370) 
67886378

>  <Links>  (370) 
|http://www.chemspider.com/Chemical-Structure.67886378.html|https://www.ebi.ac.uk/chembldb/compound/inspect/CHEMBL4216467|https://pubchem.ncbi.nlm.nih.gov/compound/71584930|https://go.drugbank.com/drugs/DB14840|https://www.guidetopharmacology.org/GRAC/LigandDisplayForward?9175|https://precision.fda.gov/uniisearch/srs/unii/9XW757O13D

>  <LinkName>  (370) 
|ChemSpider|ChEMBL|PubChem|DrugBank|Guide to Pharmacology|FDA SRS

>  <lig_pdb_ID>  (370) 


>  <pdb_IDs>  (370) 


>  <indicationDB>  (370) 


>  <uniprotId>  (370) 


>  <indicationG2P>  (370) 
None

>  <MW>  (370) 
509.1

>  <HBA>  (370) 
5

>  <HBD>  (370) 
3

>  <NRB>  (370) 
5

>  <TPSA>  (370) 
88.0

>  <LogP>  (370) 
5.7

>  <RoF>  (370) 
2

>  <Melting point>  (370) 
nan

>  <Targets>  (370) 
nan

>  <Kinase families>  (370) 


>  <FDA_approved>  (370) 
Y

$$$$
Quizartinib
     RDKit          2D

 40 45  0  0  0  0  0  0  0  0999 V2000
  -12.9702    1.7775    0.0000 C   0  0  0  0  0  0  0  0  0  0  0  0
  -13.0395    0.2791    0.0000 C   0  0  0  0  0  0  0  0  0  0  0  0
  -13.1088   -1.2193    0.0000 C   0  0  0  0  0  0  0  0  0  0  0  0
  -14.5379    0.3484    0.0000 C   0  0  0  0  0  0  0  0  0  0  0  0
  -11.5411    0.2098    0.0000 C   0  0  0  0  0  0  0  0  0  0  0  0
  -10.7164   -1.0432    0.0000 C   0  0  0  0  0  0  0  0  0  0  0  0
   -9.2699   -0.6461    0.0000 C   0  0  0  0  0  0  0  0  0  0  0  0
   -9.2006    0.8523    0.0000 N   0  0  0  0  0  0  0  0  0  0  0  0
  -10.6043    1.3813    0.0000 O   0  0  0  0  0  0  0  0  0  0  0  0
   -8.0984   -1.5828    0.0000 N   0  0  0  0  0  0  0  0  0  0  0  0
   -6.7014   -1.0367    0.0000 C   0  0  0  0  0  0  0  0  0  0  0  0
   -6.4759    0.4463    0.0000 O   0  0  0  0  0  0  0  0  0  0  0  0
   -5.5299   -1.9735    0.0000 N   0  0  0  0  0  0  0  0  0  0  0  0
   -4.1329   -1.4273    0.0000 C   0  0  0  0  0  0  0  0  0  0  0  0
   -2.9614   -2.3641    0.0000 C   0  0  0  0  0  0  0  0  0  0  0  0
   -1.5643   -1.8180    0.0000 C   0  0  0  0  0  0  0  0  0  0  0  0
   -1.3388   -0.3350    0.0000 C   0  0  0  0  0  0  0  0  0  0  0  0
   -2.5103    0.6018    0.0000 C   0  0  0  0  0  0  0  0  0  0  0  0
   -3.9073    0.0556    0.0000 C   0  0  0  0  0  0  0  0  0  0  0  0
    0.0583    0.2111    0.0000 C   0  0  0  0  0  0  0  0  0  0  0  0
    1.3213   -0.5981    0.0000 C   0  0  0  0  0  0  0  0  0  0  0  0
    2.4812    0.3531    0.0000 N   0  0  0  0  0  0  0  0  0  0  0  0
    3.9786    0.4408    0.0000 C   0  0  0  0  0  0  0  0  0  0  0  0
    5.0458   -0.6134    0.0000 C   0  0  0  0  0  0  0  0  0  0  0  0
    6.4922   -0.2162    0.0000 C   0  0  0  0  0  0  0  0  0  0  0  0
    6.8715    1.2350    0.0000 C   0  0  0  0  0  0  0  0  0  0  0  0
    5.8044    2.2891    0.0000 C   0  0  0  0  0  0  0  0  0  0  0  0
    4.3579    1.8920    0.0000 C   0  0  0  0  0  0  0  0  0  0  0  0
    3.0949    2.7012    0.0000 S   0  0  0  0  0  0  0  0  0  0  0  0
    1.9350    1.7501    0.0000 C   0  0  0  0  0  0  0  0  0  0  0  0
    0.4376    1.6624    0.0000 N   0  0  0  0  0  0  0  0  0  0  0  0
    8.3180    1.6322    0.0000 O   0  0  0  0  0  0  0  0  0  0  0  0
    9.3852    0.5780    0.0000 C   0  0  0  0  0  0  0  0  0  0  0  0
   10.8316    0.9752    0.0000 C   0  0  0  0  0  0  0  0  0  0  0  0
   11.8988   -0.0789    0.0000 N   0  0  0  0  0  0  0  0  0  0  0  0
   11.5195   -1.5302    0.0000 C   0  0  0  0  0  0  0  0  0  0  0  0
   12.5867   -2.5843    0.0000 C   0  0  0  0  0  0  0  0  0  0  0  0
   14.0331   -2.1872    0.0000 O   0  0  0  0  0  0  0  0  0  0  0  0
   14.4124   -0.7359    0.0000 C   0  0  0  0  0  0  0  0  0  0  0  0
   13.3453    0.3182    0.0000 C   0  0  0  0  0  0  0  0  0  0  0  0
  1  2  1  0
  2  3  1  0
  2  4  1  0
  2  5  1  0
  5  6  2  0
  6  7  1  0
  7  8  2  0
  8  9  1  0
  7 10  1  0
 10 11  1  0
 11 12  2  0
 11 13  1  0
 13 14  1  0
 14 15  2  0
 15 16  1  0
 16 17  2  0
 17 18  1  0
 18 19  2  0
 17 20  1  0
 20 21  2  0
 21 22  1  0
 22 23  1  0
 23 24  2  0
 24 25  1  0
 25 26  2  0
 26 27  1  0
 27 28  2  0
 28 29  1  0
 29 30  1  0
 30 31  2  0
 26 32  1  0
 32 33  1  0
 33 34  1  0
 34 35  1  0
 35 36  1  0
 36 37  1  0
 37 38  1  0
 38 39  1  0
 39 40  1  0
  9  5  1  0
 19 14  1  0
 31 20  1  0
 30 22  1  0
 28 23  1  0
 40 35  1  0
M  END
>  <BrandName>  (371) 


>  <Applicants>  (371) 
Ambit Biosciences

>  <CHEMBL_ID>  (371) 
CHEMBL576982

>  <Canonical_Smiles>  (371) 
CC(C)(C)c1cc(no1)NC(=O)Nc2ccc(cc2)c3cn4c5ccc(cc5sc4n3)OCCN6CCOCC6

>  <Chirality>  (371) 
Achiral Molecule

>  <First_Approval>  (371) 
2023

>  <Phase>  (371) 
4.0

>  <SC_Patent>  (371) 
US-7820657-B2

>  <Synonyms>  (371) 
AC-010220 | AC-220 | AC010220 | AC220 | ASP-2689 | QUIZARTINIB

>  <Withdrawn>  (371) 
{'', 'Study NCT04676243 in unknown country was Withdrawn during PHASE3 because Study turned out no longer feasible'}

>  <Indications>  (371) 
On July 2023, FDA approved Quizartinib to use as part of a treatment regimen for newly diagnosed acute myeloid leukemia that meets certain criteria

>  <Type>  (371) 
2

>  <targets_id>  (371) 
P36888|P07333|P10721

>  <Inchi>  (371) 
InChI=1S/C29H32N6O4S/c1-29(2,3)25-17-26(33-39-25)32-27(36)30-20-6-4-19(5-7-20)22-18-35-23-9-8-21(16-24(23)40-28(35)31-22)38-15-12-34-10-13-37-14-11-34/h4-9,16-18H,10-15H2,1-3H3,(H2,30,32,33,36)

>  <stdInchikey>  (371) 
CVWXJKQAOSCOAB-UHFFFAOYSA-N

>  <csid>  (371) 
24640357

>  <Links>  (371) 
|http://www.chemspider.com/Chemical-Structure.24640357.html|https://www.ebi.ac.uk/chembldb/compound/inspect/CHEMBL576982|https://pubchem.ncbi.nlm.nih.gov/compound/24889392|https://go.drugbank.com/drugs/DB12874|https://www.rcsb.org/ligand/P30|https://www.ebi.ac.uk/pdbe-srv/pdbechem/chemicalCompound/show/P30|https://www.guidetopharmacology.org/GRAC/LigandDisplayForward?5658|https://zinc15.docking.org/substances/ZINC000043204002|https://precision.fda.gov/uniisearch/srs/unii/7LA4O6Q0D3|https://www.bindingdb.org/bind/chemsearch/marvin/MolStructure.jsp?monomerid=50300690

>  <LinkName>  (371) 
|ChemSpider|ChEMBL|PubChem|DrugBank|RCSB|PDBe|Guide to Pharmacology|ZINC|FDA SRS|BindingDB

>  <lig_pdb_ID>  (371) 
P30

>  <pdb_IDs>  (371) 
4rt7 4xuf

>  <indicationDB>  (371) 


>  <uniprotId>  (371) 


>  <indicationG2P>  (371) 
None

>  <MW>  (371) 
560.2

>  <HBA>  (371) 
9

>  <HBD>  (371) 
2

>  <NRB>  (371) 
7

>  <TPSA>  (371) 
106.2

>  <LogP>  (371) 
5.9

>  <RoF>  (371) 
2

>  <Melting point>  (371) 
nan

>  <Targets>  (371) 
FLT3; CSF1R; KIT

>  <Kinase families>  (371) 
Tyr

>  <FDA_approved>  (371) 
Y

$$$$
Fasudil
     RDKit          2D

 20 22  0  0  0  0  0  0  0  0999 V2000
    2.7967   -2.7203    0.0000 C   0  0  0  0  0  0  0  0  0  0  0  0
    3.8432   -1.6457    0.0000 C   0  0  0  0  0  0  0  0  0  0  0  0
    3.4359   -0.2021    0.0000 C   0  0  0  0  0  0  0  0  0  0  0  0
    4.4825    0.8725    0.0000 C   0  0  0  0  0  0  0  0  0  0  0  0
    4.0751    2.3161    0.0000 N   0  0  0  0  0  0  0  0  0  0  0  0
    2.6213    2.6852    0.0000 C   0  0  0  0  0  0  0  0  0  0  0  0
    1.5747    1.6106    0.0000 C   0  0  0  0  0  0  0  0  0  0  0  0
    1.9820    0.1670    0.0000 C   0  0  0  0  0  0  0  0  0  0  0  0
    0.9355   -0.9076    0.0000 C   0  0  0  0  0  0  0  0  0  0  0  0
    1.3428   -2.3512    0.0000 C   0  0  0  0  0  0  0  0  0  0  0  0
   -0.5184   -0.5385    0.0000 S   0  0  0  0  0  0  0  0  0  0  0  0
   -0.8875   -1.9924    0.0000 O   0  0  0  0  0  0  0  0  0  0  0  0
   -0.1494    0.9154    0.0000 O   0  0  0  0  0  0  0  0  0  0  0  0
   -1.9723   -0.1695    0.0000 N   0  0  0  0  0  0  0  0  0  0  0  0
   -2.9357   -1.3192    0.0000 C   0  0  0  0  0  0  0  0  0  0  0  0
   -4.4352   -1.2829    0.0000 C   0  0  0  0  0  0  0  0  0  0  0  0
   -5.3418   -0.0879    0.0000 C   0  0  0  0  0  0  0  0  0  0  0  0
   -4.9727    1.3660    0.0000 N   0  0  0  0  0  0  0  0  0  0  0  0
   -3.6059    1.9839    0.0000 C   0  0  0  0  0  0  0  0  0  0  0  0
   -2.2706    1.3006    0.0000 C   0  0  0  0  0  0  0  0  0  0  0  0
  1  2  2  0
  2  3  1  0
  3  4  2  0
  4  5  1  0
  5  6  2  0
  6  7  1  0
  7  8  2  0
  8  9  1  0
  9 10  2  0
  9 11  1  0
 11 12  2  0
 11 13  2  0
 11 14  1  0
 14 15  1  0
 15 16  1  0
 16 17  1  0
 17 18  1  0
 18 19  1  0
 19 20  1  0
 10  1  1  0
  8  3  1  0
 20 14  1  0
M  END
>  <BrandName>  (372) 


>  <Applicants>  (372) 
Asahi Kasei Pharma Corp

>  <CHEMBL_ID>  (372) 
CHEMBL38380

>  <Canonical_Smiles>  (372) 
c1cc2cnccc2c(c1)S(=O)(=O)N3CCCNCC3

>  <Chirality>  (372) 
Achiral Molecule

>  <First_Approval>  (372) 
nan

>  <Phase>  (372) 
4.0

>  <SC_Patent>  (372) 
nan

>  <Synonyms>  (372) 
AT 877 | AT-877 | FASUDIL | HA 1077 | HA-1077 | NSC-759827 | ZK-258594

>  <Withdrawn>  (372) 
{''}

>  <Indications>  (372) 
Fasudil is a potent inhibitor of the Rho-kinases ROCK1 and ROCK2.

>  <Type>  (372) 
nan

>  <targets_id>  (372) 
nan

>  <Inchi>  (372) 
InChI=1S/C14H17N3O2S/c18-20(19,17-9-2-6-15-8-10-17)14-4-1-3-12-11-16-7-5-13(12)14/h1,3-5,7,11,15H,2,6,8-10H2

>  <stdInchikey>  (372) 
NGOGFTYYXHNFQH-UHFFFAOYSA-N

>  <csid>  (372) 
3426

>  <Links>  (372) 
|http://www.chemspider.com/Chemical-Structure.3426.html|https://www.ebi.ac.uk/chembldb/compound/inspect/CHEMBL38380|https://pubchem.ncbi.nlm.nih.gov/compound/3547|https://go.drugbank.com/drugs/DB08162|https://www.rcsb.org/ligand/M77|https://www.ebi.ac.uk/pdbe-srv/pdbechem/chemicalCompound/show/M77|https://www.guidetopharmacology.org/GRAC/LigandDisplayForward?5181|https://zinc15.docking.org/substances/ZINC000000006486|https://precision.fda.gov/uniisearch/srs/unii/Q0CH43PGXS|https://www.bindingdb.org/bind/chemsearch/marvin/MolStructure.jsp?monomerid=14027

>  <LinkName>  (372) 
|ChemSpider|ChEMBL|PubChem|DrugBank|RCSB|PDBe|Guide to Pharmacology|ZINC|FDA SRS|BindingDB

>  <lig_pdb_ID>  (372) 
M77

>  <pdb_IDs>  (372) 
1q8w 2esm 2f2u 2gni 3tku 5lcp 5nw8 5o0e 5ok3 5vef 6em2 6erw 6i2a 6i2c 6yna

>  <indicationDB>  (372) 


>  <uniprotId>  (372) 


>  <indicationG2P>  (372) 
None

>  <MW>  (372) 
291.1

>  <HBA>  (372) 
4

>  <HBD>  (372) 
1

>  <NRB>  (372) 
2

>  <TPSA>  (372) 
62.3

>  <LogP>  (372) 
1.2

>  <RoF>  (372) 
0

>  <Melting point>  (372) 
nan

>  <Targets>  (372) 
nan

>  <Kinase families>  (372) 


>  <FDA_approved>  (372) 
N

$$$$
Fedratinib
     RDKit          2D

 37 40  0  0  0  0  0  0  0  0999 V2000
    3.6403   -5.6667    0.0000 C   0  0  0  0  0  0  0  0  0  0  0  0
    2.7459   -4.4625    0.0000 C   0  0  0  0  0  0  0  0  0  0  0  0
    1.2558   -4.6350    0.0000 C   0  0  0  0  0  0  0  0  0  0  0  0
    0.3615   -3.4308    0.0000 N   0  0  0  0  0  0  0  0  0  0  0  0
    0.9571   -2.0541    0.0000 C   0  0  0  0  0  0  0  0  0  0  0  0
    2.4472   -1.8817    0.0000 N   0  0  0  0  0  0  0  0  0  0  0  0
    3.3416   -3.0858    0.0000 C   0  0  0  0  0  0  0  0  0  0  0  0
    4.8316   -2.9134    0.0000 N   0  0  0  0  0  0  0  0  0  0  0  0
    5.4273   -1.5367    0.0000 C   0  0  0  0  0  0  0  0  0  0  0  0
    6.9173   -1.3643    0.0000 C   0  0  0  0  0  0  0  0  0  0  0  0
    7.5130    0.0124    0.0000 C   0  0  0  0  0  0  0  0  0  0  0  0
    6.6186    1.2166    0.0000 C   0  0  0  0  0  0  0  0  0  0  0  0
    5.1286    1.0441    0.0000 C   0  0  0  0  0  0  0  0  0  0  0  0
    4.5329   -0.3325    0.0000 C   0  0  0  0  0  0  0  0  0  0  0  0
    4.2342    2.2483    0.0000 S   0  0  0  0  0  0  0  0  0  0  0  0
    5.4384    3.1427    0.0000 O   0  0  0  0  0  0  0  0  0  0  0  0
    3.0300    1.3539    0.0000 O   0  0  0  0  0  0  0  0  0  0  0  0
    3.3398    3.4525    0.0000 N   0  0  0  0  0  0  0  0  0  0  0  0
    3.9354    4.8292    0.0000 C   0  0  0  0  0  0  0  0  0  0  0  0
    2.5588    5.4248    0.0000 C   0  0  0  0  0  0  0  0  0  0  0  0
    5.3121    4.2335    0.0000 C   0  0  0  0  0  0  0  0  0  0  0  0
    4.5311    6.2058    0.0000 C   0  0  0  0  0  0  0  0  0  0  0  0
    0.0627   -0.8499    0.0000 N   0  0  0  0  0  0  0  0  0  0  0  0
   -1.4273   -1.0224    0.0000 C   0  0  0  0  0  0  0  0  0  0  0  0
   -2.0230   -2.3991    0.0000 C   0  0  0  0  0  0  0  0  0  0  0  0
   -3.5130   -2.5715    0.0000 C   0  0  0  0  0  0  0  0  0  0  0  0
   -4.4074   -1.3673    0.0000 C   0  0  0  0  0  0  0  0  0  0  0  0
   -3.8118    0.0093    0.0000 C   0  0  0  0  0  0  0  0  0  0  0  0
   -2.3217    0.1818    0.0000 C   0  0  0  0  0  0  0  0  0  0  0  0
   -5.8975   -1.5398    0.0000 O   0  0  0  0  0  0  0  0  0  0  0  0
   -6.7919   -0.3356    0.0000 C   0  0  0  0  0  0  0  0  0  0  0  0
   -8.2819   -0.5081    0.0000 C   0  0  0  0  0  0  0  0  0  0  0  0
   -9.1763    0.6961    0.0000 N   0  0  0  0  0  0  0  0  0  0  0  0
   -8.7278    2.1275    0.0000 C   0  0  0  0  0  0  0  0  0  0  0  0
   -9.9505    2.9964    0.0000 C   0  0  0  0  0  0  0  0  0  0  0  0
  -11.1547    2.1020    0.0000 C   0  0  0  0  0  0  0  0  0  0  0  0
  -10.6762    0.6803    0.0000 C   0  0  0  0  0  0  0  0  0  0  0  0
  1  2  1  0
  2  3  2  0
  3  4  1  0
  4  5  2  0
  5  6  1  0
  6  7  2  0
  7  8  1  0
  8  9  1  0
  9 10  2  0
 10 11  1  0
 11 12  2  0
 12 13  1  0
 13 14  2  0
 13 15  1  0
 15 16  2  0
 15 17  2  0
 15 18  1  0
 18 19  1  0
 19 20  1  0
 19 21  1  0
 19 22  1  0
  5 23  1  0
 23 24  1  0
 24 25  2  0
 25 26  1  0
 26 27  2  0
 27 28  1  0
 28 29  2  0
 27 30  1  0
 30 31  1  0
 31 32  1  0
 32 33  1  0
 33 34  1  0
 34 35  1  0
 35 36  1  0
 36 37  1  0
  7  2  1  0
 14  9  1  0
 29 24  1  0
 37 33  1  0
M  END
>  <BrandName>  (373) 
Inrebic

>  <Applicants>  (373) 
Sanofi

>  <CHEMBL_ID>  (373) 
CHEMBL1287853

>  <Canonical_Smiles>  (373) 
Cc1cnc(nc1Nc2cccc(c2)S(=O)(=O)NC(C)(C)C)Nc3ccc(cc3)OCCN4CCCC4

>  <Chirality>  (373) 
Achiral Molecule

>  <First_Approval>  (373) 
2019

>  <Phase>  (373) 
4.0

>  <SC_Patent>  (373) 
US-7528143-B2

>  <Synonyms>  (373) 
FEDRATINIB | SAR-302503 | SAR302503 | TG-101348 | TG101348

>  <Withdrawn>  (373) 
{'', 'Study NCT04955938 in United States was Withdrawn during PHASE1 because unable to accrue'}

>  <Indications>  (373) 
On august 2019, FDA approved fedratinib to treat adult patients with intermediate-2 or high-risk primary or secondary myelofibrosis

>  <Type>  (373) 
nan

>  <targets_id>  (373) 
O60674|P36888|O60885

>  <Inchi>  (373) 
InChI=1S/C27H36N6O3S/c1-20-19-28-26(30-21-10-12-23(13-11-21)36-17-16-33-14-5-6-15-33)31-25(20)29-22-8-7-9-24(18-22)37(34,35)32-27(2,3)4/h7-13,18-19,32H,5-6,14-17H2,1-4H3,(H2,28,29,30,31)

>  <stdInchikey>  (373) 
JOOXLOJCABQBSG-UHFFFAOYSA-N

>  <csid>  (373) 
17626393

>  <Links>  (373) 
|http://www.chemspider.com/Chemical-Structure.17626393.html|https://www.ebi.ac.uk/chembldb/compound/inspect/CHEMBL1287853|https://pubchem.ncbi.nlm.nih.gov/compound/16722836|https://go.drugbank.com/drugs/DB12500|https://www.rcsb.org/ligand/2TA|https://www.ebi.ac.uk/pdbe-srv/pdbechem/chemicalCompound/show/2TA|https://www.guidetopharmacology.org/GRAC/LigandDisplayForward?5716|https://zinc15.docking.org/substances/ZINC000019862646|https://precision.fda.gov/uniisearch/srs/unii/6L1XP550I6|https://www.bindingdb.org/bind/chemsearch/marvin/MolStructure.jsp?monomerid=50332294

>  <LinkName>  (373) 
|ChemSpider|ChEMBL|PubChem|DrugBank|RCSB|PDBe|Guide to Pharmacology|ZINC|FDA SRS|BindingDB

>  <lig_pdb_ID>  (373) 
2TA

>  <pdb_IDs>  (373) 
4ogj 4ps5 6vne 8s5w 8xv9 8z7u 8z7y

>  <indicationDB>  (373) 


>  <uniprotId>  (373) 


>  <indicationG2P>  (373) 
None

>  <MW>  (373) 
524.3

>  <HBA>  (373) 
8

>  <HBD>  (373) 
3

>  <NRB>  (373) 
10

>  <TPSA>  (373) 
108.5

>  <LogP>  (373) 
4.8

>  <RoF>  (373) 
1

>  <Melting point>  (373) 
nan

>  <Targets>  (373) 
JAK2; FLT3; BRD4

>  <Kinase families>  (373) 
Tyr<br>(*)

>  <FDA_approved>  (373) 
Y

$$$$
Peficitinib
     RDKit          2D

 24 28  0  0  0  0  0  0  0  0999 V2000
   -0.8062   -2.1234    0.0000 C   0  0  0  0  0  0  0  0  0  0  0  0
   -1.4706   -3.4682    0.0000 C   0  0  0  0  0  0  0  0  0  0  0  0
   -2.9549   -3.2519    0.0000 N   0  0  0  0  0  0  0  0  0  0  0  0
   -3.2079   -1.7734    0.0000 C   0  0  0  0  0  0  0  0  0  0  0  0
   -1.8799   -1.0759    0.0000 C   0  0  0  0  0  0  0  0  0  0  0  0
   -1.8199    0.4229    0.0000 C   0  0  0  0  0  0  0  0  0  0  0  0
   -3.0880    1.2242    0.0000 C   0  0  0  0  0  0  0  0  0  0  0  0
   -4.4159    0.5267    0.0000 C   0  0  0  0  0  0  0  0  0  0  0  0
   -4.4759   -0.9721    0.0000 N   0  0  0  0  0  0  0  0  0  0  0  0
   -3.0280    2.7230    0.0000 C   0  0  0  0  0  0  0  0  0  0  0  0
   -1.7000    3.4205    0.0000 O   0  0  0  0  0  0  0  0  0  0  0  0
   -4.2960    3.5243    0.0000 N   0  0  0  0  0  0  0  0  0  0  0  0
   -0.4920    1.1203    0.0000 N   0  0  0  0  0  0  0  0  0  0  0  0
    0.7761    0.3190    0.0000 C   0  0  0  0  0  0  0  0  0  0  0  0
    2.1040    1.0164    0.0000 C   0  0  0  0  0  0  0  0  0  0  0  0
    2.0441   -0.4824    0.0000 C   0  0  0  0  0  0  0  0  0  0  0  0
    3.3121   -1.2837    0.0000 C   0  0  0  0  0  0  0  0  0  0  0  0
    1.9841   -1.9812    0.0000 C   0  0  0  0  0  0  0  0  0  0  0  0
    0.7161   -1.1798    0.0000 C   0  0  0  0  0  0  0  0  0  0  0  0
    3.8987   -0.3555    0.0000 C   0  0  0  0  0  0  0  0  0  0  0  0
    4.7000    0.9126    0.0000 C   0  0  0  0  0  0  0  0  0  0  0  0
    4.6401   -0.5862    0.0000 C   0  0  0  0  0  0  0  0  0  0  0  0
    3.4320    1.7139    0.0000 C   0  0  0  0  0  0  0  0  0  0  0  0
    6.0280    1.6100    0.0000 O   0  0  0  0  0  0  0  0  0  0  0  0
  1  2  2  0
  2  3  1  0
  3  4  1  0
  4  5  2  0
  5  6  1  0
  6  7  2  0
  7  8  1  0
  8  9  2  0
  7 10  1  0
 10 11  2  0
 10 12  1  0
  6 13  1  0
 14 13  1  6
 14 15  1  0
 15 16  1  6
 17 16  1  6
 17 18  1  0
 19 18  1  6
 19 20  1  0
 20 21  1  0
 21 22  1  0
 21 23  1  0
 21 24  1  1
  5  1  1  0
  9  4  1  0
 19 14  1  0
 23 15  1  0
 22 17  1  0
M  END
>  <BrandName>  (374) 


>  <Applicants>  (374) 
Astellas Pharma

>  <CHEMBL_ID>  (374) 
CHEMBL3137308

>  <Canonical_Smiles>  (374) 
c1c[nH]c2c1c(c(cn2)C(=O)N)N[C@@H]3[C@@H]4C[C@@H]5C[C@H]3C[C@@](C5)(C4)O

>  <Chirality>  (374) 
Racemic Mixture

>  <First_Approval>  (374) 
nan

>  <Phase>  (374) 
4.0

>  <SC_Patent>  (374) 
nan

>  <Synonyms>  (374) 
|JNJ-54781532|ASP-015K|ASP015K

>  <Withdrawn>  (374) 
nan

>  <Indications>  (374) 
nan

>  <Type>  (374) 
nan

>  <targets_id>  (374) 
P23458|O60674|P52333|P29597

>  <Inchi>  (374) 
InChI=1S/C18H22N4O2/c19-16(23)13-8-21-17-12(1-2-20-17)15(13)22-14-10-3-9-4-11(14)7-18(24,5-9)6-10/h1-2,8-11,14,24H,3-7H2,(H2,19,23)(H2,20,21,22)/t9?,10-,11+,14-,18-

>  <stdInchikey>  (374) 
DREIJXJRTLTGJC-ZKVNVPQCSA-N

>  <csid>  (374) 
32742439

>  <Links>  (374) 
|http://www.chemspider.com/Chemical-Structure.32742439.html|https://www.rcsb.org/ligand/9T6|https://www.ebi.ac.uk/pdbe-srv/pdbechem/chemicalCompound/show/9T6|https://zinc15.docking.org/substances/ZINC000146784326

>  <LinkName>  (374) 
|ChemSpider|RCSB|PDBe|ZINC

>  <lig_pdb_ID>  (374) 
9T6

>  <pdb_IDs>  (374) 
6aah 6aaj 6aak 6aam

>  <indicationDB>  (374) 


>  <uniprotId>  (374) 


>  <indicationG2P>  (374) 


>  <MW>  (374) 
326.2

>  <HBA>  (374) 
4

>  <HBD>  (374) 
4

>  <NRB>  (374) 
3

>  <TPSA>  (374) 
104.0

>  <LogP>  (374) 
2.0

>  <RoF>  (374) 
0

>  <Melting point>  (374) 
nan

>  <Targets>  (374) 
JAK1; JAK2; JAK3; TYK2

>  <Kinase families>  (374) 
Tyr

>  <FDA_approved>  (374) 
Y

$$$$
Apatinib
     RDKit          2D

 30 33  0  0  0  0  0  0  0  0999 V2000
   -5.6805   -2.6420    0.0000 N   0  0  0  0  0  0  0  0  0  0  0  0
   -5.5900   -1.1448    0.0000 C   0  0  0  0  0  0  0  0  0  0  0  0
   -5.4995    0.3525    0.0000 C   0  0  0  0  0  0  0  0  0  0  0  0
   -6.9980    0.2860    0.0000 C   0  0  0  0  0  0  0  0  0  0  0  0
   -7.5243    1.6906    0.0000 C   0  0  0  0  0  0  0  0  0  0  0  0
   -6.3511    2.6252    0.0000 C   0  0  0  0  0  0  0  0  0  0  0  0
   -5.0997    1.7982    0.0000 C   0  0  0  0  0  0  0  0  0  0  0  0
   -4.0199    0.1060    0.0000 C   0  0  0  0  0  0  0  0  0  0  0  0
   -3.4935   -1.2986    0.0000 C   0  0  0  0  0  0  0  0  0  0  0  0
   -2.0139   -1.5451    0.0000 C   0  0  0  0  0  0  0  0  0  0  0  0
   -1.0607   -0.3870    0.0000 C   0  0  0  0  0  0  0  0  0  0  0  0
   -1.5870    1.0176    0.0000 C   0  0  0  0  0  0  0  0  0  0  0  0
   -3.0666    1.2641    0.0000 C   0  0  0  0  0  0  0  0  0  0  0  0
    0.4190   -0.6335    0.0000 N   0  0  0  0  0  0  0  0  0  0  0  0
    0.9453   -2.0381    0.0000 C   0  0  0  0  0  0  0  0  0  0  0  0
   -0.0080   -3.1963    0.0000 O   0  0  0  0  0  0  0  0  0  0  0  0
    2.4249   -2.2846    0.0000 C   0  0  0  0  0  0  0  0  0  0  0  0
    2.9512   -3.6893    0.0000 C   0  0  0  0  0  0  0  0  0  0  0  0
    4.4308   -3.9358    0.0000 C   0  0  0  0  0  0  0  0  0  0  0  0
    5.3841   -2.7776    0.0000 C   0  0  0  0  0  0  0  0  0  0  0  0
    4.8578   -1.3730    0.0000 N   0  0  0  0  0  0  0  0  0  0  0  0
    3.3782   -1.1265    0.0000 C   0  0  0  0  0  0  0  0  0  0  0  0
    2.8518    0.2781    0.0000 N   0  0  0  0  0  0  0  0  0  0  0  0
    3.8051    1.4363    0.0000 C   0  0  0  0  0  0  0  0  0  0  0  0
    5.2847    1.1898    0.0000 C   0  0  0  0  0  0  0  0  0  0  0  0
    6.2380    2.3479    0.0000 N   0  0  0  0  0  0  0  0  0  0  0  0
    5.7117    3.7525    0.0000 C   0  0  0  0  0  0  0  0  0  0  0  0
    4.2321    3.9990    0.0000 C   0  0  0  0  0  0  0  0  0  0  0  0
    3.2788    2.8409    0.0000 C   0  0  0  0  0  0  0  0  0  0  0  0
    1.7992    3.0874    0.0000 C   0  0  0  0  0  0  0  0  0  0  0  0
  1  2  3  0
  2  3  1  0
  3  4  1  0
  4  5  1  0
  5  6  1  0
  6  7  1  0
  3  8  1  0
  8  9  2  0
  9 10  1  0
 10 11  2  0
 11 12  1  0
 12 13  2  0
 11 14  1  0
 14 15  1  0
 15 16  2  0
 15 17  1  0
 17 18  2  0
 18 19  1  0
 19 20  2  0
 20 21  1  0
 21 22  2  0
 22 23  1  0
 23 24  1  0
 24 25  2  0
 25 26  1  0
 26 27  2  0
 27 28  1  0
 28 29  2  0
 29 30  1  0
  7  3  1  0
 13  8  1  0
 22 17  1  0
 29 24  1  0
M  END
>  <BrandName>  (375) 


>  <Applicants>  (375) 
Bukwang Pharmaceutical

>  <CHEMBL_ID>  (375) 
nan

>  <Canonical_Smiles>  (375) 
N#CC1(CCCC1)c1ccc(cc1)NC(=O)c1cccnc1Nc1cnccc1C

>  <Chirality>  (375) 
nan

>  <First_Approval>  (375) 
2014

>  <Phase>  (375) 
4.0

>  <SC_Patent>  (375) 
nan

>  <Synonyms>  (375) 
IRINOTECAN|VP-16|ESYLATE APATINIB|APATINIB 500MG||ARM A|ALBUMIN PACLITAXEL|PD-1 ANTIBODY|YN968D1,(AITAN|APATINIB|SPA|CARBOPLATIN|IE CHEMOTHERAPY|APATINIB CAPSULE|REATMENT GROUP|NO.|APATINIB MESYLAS|NAVELBINE+AITAN|IMMUNOTHERAPY|YN968D1|APATINIB 750MG|DOCETAXEL|STUDY DRUG|PLATINU|APATINIB TABLETS|ARGET THERAPY|AITAN|APATINIB MESYLATE|APA PLUS C|XELOX|PACLITAXOL|H20140103|ESOPHAGECTOMY|APATINIBMESYLATE|SURGERY|RIVOCERANIB|OXALIPLATIN|GEMCITABINE|YEW|CRYOABLATION|PEMETREXED|S-1|COMBINED THERAPY|AI TAN|EMOZOLOMIDE|EMOZOLOMIDETMZ|ATAN|CAPECITABINE|5-FLUOROURACIL|CISPLATIN|ARGETED THERAPY|S1|APATINIB GROUP|EGAFUR|SHR-1210

>  <Withdrawn>  (375) 
{'', 'Study NCT03104335 in China was Withdrawn during PHASE2 because Not enough patients', "Study NCT03228043 in China was Withdrawn during NA because It's not possible to complete in our hospital", 'Study NCT03792503 in China was Withdrawn during PHASE4 because abandon', 'Study NCT04863430 in China was Withdrawn during PHASE2 because The anti-PD-1 agents were proved effective by several clinical trials and recommended to treat gastric cancer In order to protect the interest of patients, this trial was withdrawn after carefully discussion with all investigators', 'Study NCT03164694 in China was Withdrawn during PHASE2 because No patients enrolled', 'Study NCT04682249 in China was Withdrawn during PHASE2 because no patients enrolled', 'Study NCT03787251 in unknown country was Withdrawn during PHASE2 because In China, apatinib has been approved as an indication drug for esophageal squamous cell carcinoma, which makes it very difficult for our clinical trial to enroll patients We regret that we failed to implement the design as planned', 'Study NCT03190239 in China was Withdrawn during PHASE2 because abandon', 'Study NCT03193814 in unknown country was Withdrawn during PHASE2 because Inadequate patient enrollment'}

>  <Indications>  (375) 
Apatinib mesylate is an orally bioavailable, small-molecule receptor tyrosine kinase inhibitor with potential antiangiogenic and antineoplastic activities. The free-base form is also known as Rivoceranib. Apatinib selectively binds to and inhibits vascular endothelial growth factor receptor 2, which may inhibit VEGF-stimulated endothelial cell migration and proliferation and decrease tumor microvessel density. In addition, this agent mildly inhibits c-Kit and c-SRC tyrosine kinases.

>  <Type>  (375) 
nan

>  <targets_id>  (375) 
P35968

>  <Inchi>  (375) 
InChI=1S/C24H23N5O/c25-17-24(11-1-2-12-24)19-5-7-20(8-6-19)29-23(30)21-4-3-13-27-22(21)28-16-18-9-14-26-15-10-18/h3-10,13-15H,1-2,11-12,16H2,(H,27,28)(H,29,30)

>  <stdInchikey>  (375) 
MGZNERAVOCFMCU-UHFFFAOYSA-N

>  <csid>  (375) 
34980756

>  <Links>  (375) 
|http://www.chemspider.com/Chemical-Structure.34980756.html|https://pubchem.ncbi.nlm.nih.gov/compound/66577012|https://zinc15.docking.org/substances/ZINC000083291412

>  <LinkName>  (375) 
|ChemSpider|PubChem|ZINC

>  <lig_pdb_ID>  (375) 


>  <pdb_IDs>  (375) 


>  <indicationDB>  (375) 


>  <uniprotId>  (375) 


>  <indicationG2P>  (375) 


>  <MW>  (375) 
397.2

>  <HBA>  (375) 
5

>  <HBD>  (375) 
2

>  <NRB>  (375) 
5

>  <TPSA>  (375) 
90.7

>  <LogP>  (375) 
5.1

>  <RoF>  (375) 
1

>  <Melting point>  (375) 
nan

>  <Targets>  (375) 
KDR

>  <Kinase families>  (375) 
Tyr

>  <FDA_approved>  (375) 
N

$$$$
Olmutinib
     RDKit          2D

 35 39  0  0  0  0  0  0  0  0999 V2000
   11.3586    1.2439    0.0000 C   0  0  0  0  0  0  0  0  0  0  0  0
    9.8599    1.1826    0.0000 N   0  0  0  0  0  0  0  0  0  0  0  0
    9.1636   -0.1460    0.0000 C   0  0  0  0  0  0  0  0  0  0  0  0
    7.6649   -0.2074    0.0000 C   0  0  0  0  0  0  0  0  0  0  0  0
    6.8624    1.0599    0.0000 N   0  0  0  0  0  0  0  0  0  0  0  0
    7.5587    2.3885    0.0000 C   0  0  0  0  0  0  0  0  0  0  0  0
    9.0574    2.4499    0.0000 C   0  0  0  0  0  0  0  0  0  0  0  0
    5.3637    0.9986    0.0000 C   0  0  0  0  0  0  0  0  0  0  0  0
    4.5612    2.2659    0.0000 C   0  0  0  0  0  0  0  0  0  0  0  0
    3.0624    2.2045    0.0000 C   0  0  0  0  0  0  0  0  0  0  0  0
    2.3662    0.8759    0.0000 C   0  0  0  0  0  0  0  0  0  0  0  0
    3.1687   -0.3914    0.0000 C   0  0  0  0  0  0  0  0  0  0  0  0
    4.6674   -0.3300    0.0000 C   0  0  0  0  0  0  0  0  0  0  0  0
    0.8674    0.8146    0.0000 N   0  0  0  0  0  0  0  0  0  0  0  0
    0.1712   -0.5140    0.0000 C   0  0  0  0  0  0  0  0  0  0  0  0
    0.9736   -1.7813    0.0000 N   0  0  0  0  0  0  0  0  0  0  0  0
    0.2774   -3.1099    0.0000 C   0  0  0  0  0  0  0  0  0  0  0  0
    0.7989   -4.5164    0.0000 C   0  0  0  0  0  0  0  0  0  0  0  0
   -0.3776   -5.4469    0.0000 C   0  0  0  0  0  0  0  0  0  0  0  0
   -1.6262   -4.6156    0.0000 S   0  0  0  0  0  0  0  0  0  0  0  0
   -1.2214   -3.1713    0.0000 C   0  0  0  0  0  0  0  0  0  0  0  0
   -2.0238   -1.9040    0.0000 C   0  0  0  0  0  0  0  0  0  0  0  0
   -1.3276   -0.5754    0.0000 N   0  0  0  0  0  0  0  0  0  0  0  0
   -3.5226   -1.9653    0.0000 O   0  0  0  0  0  0  0  0  0  0  0  0
   -4.3251   -0.6980    0.0000 C   0  0  0  0  0  0  0  0  0  0  0  0
   -3.6288    0.6306    0.0000 C   0  0  0  0  0  0  0  0  0  0  0  0
   -4.4313    1.8979    0.0000 C   0  0  0  0  0  0  0  0  0  0  0  0
   -5.9301    1.8365    0.0000 C   0  0  0  0  0  0  0  0  0  0  0  0
   -6.6263    0.5079    0.0000 C   0  0  0  0  0  0  0  0  0  0  0  0
   -5.8238   -0.7594    0.0000 C   0  0  0  0  0  0  0  0  0  0  0  0
   -8.1251    0.4466    0.0000 N   0  0  0  0  0  0  0  0  0  0  0  0
   -8.9275    1.7139    0.0000 C   0  0  0  0  0  0  0  0  0  0  0  0
   -8.2313    3.0425    0.0000 O   0  0  0  0  0  0  0  0  0  0  0  0
  -10.4263    1.6525    0.0000 C   0  0  0  0  0  0  0  0  0  0  0  0
  -11.2288    2.9198    0.0000 C   0  0  0  0  0  0  0  0  0  0  0  0
  1  2  1  0
  2  3  1  0
  3  4  1  0
  4  5  1  0
  5  6  1  0
  6  7  1  0
  5  8  1  0
  8  9  2  0
  9 10  1  0
 10 11  2  0
 11 12  1  0
 12 13  2  0
 11 14  1  0
 14 15  1  0
 15 16  2  0
 16 17  1  0
 17 18  1  0
 18 19  2  0
 19 20  1  0
 20 21  1  0
 21 22  1  0
 22 23  2  0
 22 24  1  0
 24 25  1  0
 25 26  2  0
 26 27  1  0
 27 28  2  0
 28 29  1  0
 29 30  2  0
 29 31  1  0
 31 32  1  0
 32 33  2  0
 32 34  1  0
 34 35  2  0
  7  2  1  0
 13  8  1  0
 23 15  1  0
 21 17  2  0
 30 25  1  0
M  END
>  <BrandName>  (376) 


>  <Applicants>  (376) 
Hanmi Pharmaceutical

>  <CHEMBL_ID>  (376) 
CHEMBL3786343

>  <Canonical_Smiles>  (376) 
CN1CCN(CC1)c2ccc(cc2)Nc3nc4ccsc4c(n3)Oc5cccc(c5)NC(=O)C=C

>  <Chirality>  (376) 
Achiral Molecule

>  <First_Approval>  (376) 
nan

>  <Phase>  (376) 
4.0

>  <SC_Patent>  (376) 
nan

>  <Synonyms>  (376) 
BI 1482694 | BI-1482694 | HM-61713 | HM61713 | OLMUTINIB

>  <Withdrawn>  (376) 
nan

>  <Indications>  (376) 
For use in treatment of metastatic T790M mutation positive non-small cell lung cancer

>  <Type>  (376) 
nan

>  <targets_id>  (376) 
P00533

>  <Inchi>  (376) 
InChI=1S/C26H26N6O2S/c1-3-23(33)27-19-5-4-6-21(17-19)34-25-24-22(11-16-35-24)29-26(30-25)28-18-7-9-20(10-8-18)32-14-12-31(2)13-15-32/h3-11,16-17H,1,12-15H2,2H3,(H,27,33)(H,28,29,30)

>  <stdInchikey>  (376) 
FDMQDKQUTRLUBU-UHFFFAOYSA-N

>  <csid>  (376) 
45743494

>  <Links>  (376) 
|http://www.chemspider.com/Chemical-Structure.45743494.html|https://www.ebi.ac.uk/chembldb/compound/inspect/CHEMBL3786343|https://pubchem.ncbi.nlm.nih.gov/compound/54758501|https://go.drugbank.com/drugs/DB13164|https://www.guidetopharmacology.org/GRAC/LigandDisplayForward?9196|https://zinc15.docking.org/substances/ZINC000198970879|https://precision.fda.gov/uniisearch/srs/unii/CHL9B67L95|https://www.bindingdb.org/bind/chemsearch/marvin/MolStructure.jsp?monomerid=50160871

>  <LinkName>  (376) 
|ChemSpider|ChEMBL|PubChem|DrugBank|Guide to Pharmacology|ZINC|FDA SRS|BindingDB

>  <lig_pdb_ID>  (376) 


>  <pdb_IDs>  (376) 


>  <indicationDB>  (376) 


>  <uniprotId>  (376) 


>  <indicationG2P>  (376) 
None

>  <MW>  (376) 
486.2

>  <HBA>  (376) 
8

>  <HBD>  (376) 
2

>  <NRB>  (376) 
7

>  <TPSA>  (376) 
82.6

>  <LogP>  (376) 
5.1

>  <RoF>  (376) 
1

>  <Melting point>  (376) 
nan

>  <Targets>  (376) 
EGFR

>  <Kinase families>  (376) 
Tyr

>  <FDA_approved>  (376) 
Y

$$$$
Netarsudil
     RDKit          2D

 34 37  0  0  0  0  0  0  0  0999 V2000
   -8.1992    4.8387    0.0000 C   0  0  0  0  0  0  0  0  0  0  0  0
   -7.5923    3.4670    0.0000 C   0  0  0  0  0  0  0  0  0  0  0  0
   -6.1008    3.3068    0.0000 C   0  0  0  0  0  0  0  0  0  0  0  0
   -5.4939    1.9351    0.0000 C   0  0  0  0  0  0  0  0  0  0  0  0
   -6.3783    0.7235    0.0000 C   0  0  0  0  0  0  0  0  0  0  0  0
   -7.8697    0.8837    0.0000 C   0  0  0  0  0  0  0  0  0  0  0  0
   -8.4767    2.2555    0.0000 C   0  0  0  0  0  0  0  0  0  0  0  0
   -8.7542   -0.3278    0.0000 C   0  0  0  0  0  0  0  0  0  0  0  0
   -5.7713   -0.6482    0.0000 C   0  0  0  0  0  0  0  0  0  0  0  0
   -6.6558   -1.8597    0.0000 O   0  0  0  0  0  0  0  0  0  0  0  0
   -4.2799   -0.8084    0.0000 O   0  0  0  0  0  0  0  0  0  0  0  0
   -3.6730   -2.1801    0.0000 C   0  0  0  0  0  0  0  0  0  0  0  0
   -2.1815   -2.3403    0.0000 C   0  0  0  0  0  0  0  0  0  0  0  0
   -1.5746   -3.7120    0.0000 C   0  0  0  0  0  0  0  0  0  0  0  0
   -0.0831   -3.8722    0.0000 C   0  0  0  0  0  0  0  0  0  0  0  0
    0.8013   -2.6607    0.0000 C   0  0  0  0  0  0  0  0  0  0  0  0
    0.1943   -1.2890    0.0000 C   0  0  0  0  0  0  0  0  0  0  0  0
   -1.2971   -1.1288    0.0000 C   0  0  0  0  0  0  0  0  0  0  0  0
    2.2927   -2.8209    0.0000 C   0  0  0  0  0  0  0  0  0  0  0  0
    2.8997   -4.1926    0.0000 C   0  0  0  0  0  0  0  0  0  0  0  0
    2.0153   -5.4041    0.0000 N   0  0  0  0  0  0  0  0  0  0  0  0
    3.1772   -1.6094    0.0000 C   0  0  0  0  0  0  0  0  0  0  0  0
    2.5702   -0.2376    0.0000 O   0  0  0  0  0  0  0  0  0  0  0  0
    4.6686   -1.7696    0.0000 N   0  0  0  0  0  0  0  0  0  0  0  0
    5.5530   -0.5580    0.0000 C   0  0  0  0  0  0  0  0  0  0  0  0
    7.0445   -0.7182    0.0000 C   0  0  0  0  0  0  0  0  0  0  0  0
    7.9289    0.4933    0.0000 C   0  0  0  0  0  0  0  0  0  0  0  0
    7.3219    1.8650    0.0000 C   0  0  0  0  0  0  0  0  0  0  0  0
    8.2064    3.0765    0.0000 C   0  0  0  0  0  0  0  0  0  0  0  0
    7.5994    4.4482    0.0000 N   0  0  0  0  0  0  0  0  0  0  0  0
    6.1080    4.6084    0.0000 C   0  0  0  0  0  0  0  0  0  0  0  0
    5.2235    3.3969    0.0000 C   0  0  0  0  0  0  0  0  0  0  0  0
    5.8305    2.0252    0.0000 C   0  0  0  0  0  0  0  0  0  0  0  0
    4.9461    0.8137    0.0000 C   0  0  0  0  0  0  0  0  0  0  0  0
  1  2  1  0
  2  3  2  0
  3  4  1  0
  4  5  2  0
  5  6  1  0
  6  7  2  0
  6  8  1  0
  5  9  1  0
  9 10  2  0
  9 11  1  0
 11 12  1  0
 12 13  1  0
 13 14  2  0
 14 15  1  0
 15 16  2  0
 16 17  1  0
 17 18  2  0
 16 19  1  0
 19 20  1  6
 20 21  1  0
 19 22  1  0
 22 23  2  0
 22 24  1  0
 24 25  1  0
 25 26  2  0
 26 27  1  0
 27 28  2  0
 28 29  1  0
 29 30  2  0
 30 31  1  0
 31 32  2  0
 32 33  1  0
 33 34  2  0
  7  2  1  0
 18 13  1  0
 34 25  1  0
 33 28  1  0
M  END
>  <BrandName>  (377) 
Rhopressa

>  <Applicants>  (377) 
Aerie Pharmaceutical

>  <CHEMBL_ID>  (377) 
CHEMBL4594250

>  <Canonical_Smiles>  (377) 
Cc1ccc(c(c1)C)C(=O)OCc2ccc(cc2)[C@@H](CN)C(=O)Nc3ccc4cnccc4c3

>  <Chirality>  (377) 
Single Stereoisomer

>  <First_Approval>  (377) 
2017

>  <Phase>  (377) 
4.0

>  <SC_Patent>  (377) 
US-8394826-B2

>  <Synonyms>  (377) 
AR-11324 FREE BASE | AR-13324 | NETARSUDIL

>  <Withdrawn>  (377) 
nan

>  <Indications>  (377) 
On december 18, 2017, the FDA approved netarsudil to treat glaucoma or ocular hypertension

>  <Type>  (377) 
nan

>  <targets_id>  (377) 
nan

>  <Inchi>  (377) 
InChI=1S/C28H27N3O3/c1-18-3-10-25(19(2)13-18)28(33)34-17-20-4-6-21(7-5-20)26(15-29)27(32)31-24-9-8-23-16-30-12-11-22(23)14-24/h3-14,16,26H,15,17,29H2,1-2H3,(H,31,32)/t26-/m1/s1

>  <stdInchikey>  (377) 
OURRXQUGYQRVML-AREMUKBSSA-N

>  <csid>  (377) 
34980598

>  <Links>  (377) 
|http://www.chemspider.com/Chemical-Structure.34980598.html|https://www.ebi.ac.uk/chembldb/compound/inspect/CHEMBL4594250|https://pubchem.ncbi.nlm.nih.gov/compound/66599893|https://go.drugbank.com/drugs/DB13931|https://www.guidetopharmacology.org/GRAC/LigandDisplayForward?9322|https://zinc15.docking.org/substances/ZINC000113149554|https://precision.fda.gov/uniisearch/srs/unii/W6I5QDT7QI

>  <LinkName>  (377) 
|ChemSpider|ChEMBL|PubChem|DrugBank|Guide to Pharmacology|ZINC|FDA SRS

>  <lig_pdb_ID>  (377) 


>  <pdb_IDs>  (377) 


>  <indicationDB>  (377) 


>  <uniprotId>  (377) 


>  <indicationG2P>  (377) 
None

>  <MW>  (377) 
453.2

>  <HBA>  (377) 
5

>  <HBD>  (377) 
2

>  <NRB>  (377) 
7

>  <TPSA>  (377) 
94.3

>  <LogP>  (377) 
4.9

>  <RoF>  (377) 
0

>  <Melting point>  (377) 
nan

>  <Targets>  (377) 
nan

>  <Kinase families>  (377) 


>  <FDA_approved>  (377) 
Y

$$$$
Abemaciclib
     RDKit          2D

 37 41  0  0  0  0  0  0  0  0999 V2000
   -3.0503    5.7123    0.0000 C   0  0  0  0  0  0  0  0  0  0  0  0
   -4.4857    5.2767    0.0000 C   0  0  0  0  0  0  0  0  0  0  0  0
   -4.8262    3.8159    0.0000 N   0  0  0  0  0  0  0  0  0  0  0  0
   -3.7313    2.7906    0.0000 C   0  0  0  0  0  0  0  0  0  0  0  0
   -4.0718    1.3297    0.0000 C   0  0  0  0  0  0  0  0  0  0  0  0
   -5.5071    0.8942    0.0000 N   0  0  0  0  0  0  0  0  0  0  0  0
   -6.6020    1.9195    0.0000 C   0  0  0  0  0  0  0  0  0  0  0  0
   -6.2615    3.3803    0.0000 C   0  0  0  0  0  0  0  0  0  0  0  0
   -5.8476   -0.5666    0.0000 C   0  0  0  0  0  0  0  0  0  0  0  0
   -4.7528   -1.5919    0.0000 C   0  0  0  0  0  0  0  0  0  0  0  0
   -5.0932   -3.0528    0.0000 C   0  0  0  0  0  0  0  0  0  0  0  0
   -3.9984   -4.0781    0.0000 C   0  0  0  0  0  0  0  0  0  0  0  0
   -2.5630   -3.6425    0.0000 C   0  0  0  0  0  0  0  0  0  0  0  0
   -2.2225   -2.1817    0.0000 N   0  0  0  0  0  0  0  0  0  0  0  0
   -3.3174   -1.1564    0.0000 C   0  0  0  0  0  0  0  0  0  0  0  0
   -1.4681   -4.6678    0.0000 N   0  0  0  0  0  0  0  0  0  0  0  0
   -0.0327   -4.2323    0.0000 C   0  0  0  0  0  0  0  0  0  0  0  0
    1.0622   -5.2576    0.0000 N   0  0  0  0  0  0  0  0  0  0  0  0
    2.4975   -4.8220    0.0000 C   0  0  0  0  0  0  0  0  0  0  0  0
    2.8380   -3.3612    0.0000 C   0  0  0  0  0  0  0  0  0  0  0  0
    1.7431   -2.3359    0.0000 C   0  0  0  0  0  0  0  0  0  0  0  0
    0.3078   -2.7714    0.0000 N   0  0  0  0  0  0  0  0  0  0  0  0
    2.0836   -0.8750    0.0000 C   0  0  0  0  0  0  0  0  0  0  0  0
    3.5190   -0.4395    0.0000 C   0  0  0  0  0  0  0  0  0  0  0  0
    3.8595    1.0213    0.0000 C   0  0  0  0  0  0  0  0  0  0  0  0
    2.7646    2.0466    0.0000 C   0  0  0  0  0  0  0  0  0  0  0  0
    1.3292    1.6111    0.0000 C   0  0  0  0  0  0  0  0  0  0  0  0
    0.9887    0.1503    0.0000 C   0  0  0  0  0  0  0  0  0  0  0  0
    0.2343    2.6364    0.0000 F   0  0  0  0  0  0  0  0  0  0  0  0
    3.4014    3.4048    0.0000 N   0  0  0  0  0  0  0  0  0  0  0  0
    4.8898    3.2188    0.0000 C   0  0  0  0  0  0  0  0  0  0  0  0
    5.1729    1.7458    0.0000 N   0  0  0  0  0  0  0  0  0  0  0  0
    6.5311    1.1090    0.0000 C   0  0  0  0  0  0  0  0  0  0  0  0
    6.6587   -0.3855    0.0000 C   0  0  0  0  0  0  0  0  0  0  0  0
    7.7616    1.9668    0.0000 C   0  0  0  0  0  0  0  0  0  0  0  0
    5.9151    4.3137    0.0000 C   0  0  0  0  0  0  0  0  0  0  0  0
    4.2734   -2.9256    0.0000 F   0  0  0  0  0  0  0  0  0  0  0  0
  1  2  1  0
  2  3  1  0
  3  4  1  0
  4  5  1  0
  5  6  1  0
  6  7  1  0
  7  8  1  0
  6  9  1  0
  9 10  1  0
 10 11  2  0
 11 12  1  0
 12 13  2  0
 13 14  1  0
 14 15  2  0
 13 16  1  0
 16 17  1  0
 17 18  2  0
 18 19  1  0
 19 20  2  0
 20 21  1  0
 21 22  2  0
 21 23  1  0
 23 24  2  0
 24 25  1  0
 25 26  2  0
 26 27  1  0
 27 28  2  0
 27 29  1  0
 26 30  1  0
 30 31  2  0
 31 32  1  0
 32 33  1  0
 33 34  1  0
 33 35  1  0
 31 36  1  0
 20 37  1  0
  8  3  1  0
 15 10  1  0
 22 17  1  0
 28 23  1  0
 32 25  1  0
M  END
>  <BrandName>  (378) 
Verzenio;Verzenios

>  <Applicants>  (378) 
Eli Lilly

>  <CHEMBL_ID>  (378) 
CHEMBL3301610

>  <Canonical_Smiles>  (378) 
CCN1CCN(CC1)Cc2ccc(nc2)Nc3ncc(c(n3)c4cc5c(c(c4)F)nc(n5C(C)C)C)F

>  <Chirality>  (378) 
Achiral Molecule

>  <First_Approval>  (378) 
2017

>  <Phase>  (378) 
4.0

>  <SC_Patent>  (378) 
US-7855211-B2

>  <Synonyms>  (378) 
ABEMACICLIB | LY-2835219 | LY2835219 | VERZENIO | VERZENIOS

>  <Withdrawn>  (378) 
{'', 'Study NCT04220892 in United States was Withdrawn during EARLY_PHASE1 because One of the study drugs will no longer be supplied by manufacturer and the pembrolizumab + abemaciclib study arm is removed due to toxicity seen in other trials', 'Study NCT05691400 in unknown country was Withdrawn during PHASE4 because funding was not secured', 'Study NCT03846583 in unknown country was Withdrawn during PHASE1 because Study halted prematurely, prior to enrollment of first participant', 'Study NCT04585724 in unknown country was Withdrawn during PHASE1 because Closed due to low (0) accrual'}

>  <Indications>  (378) 
On September 28, 2017, the Food and Drug Administration approved abemaciclib (VERZENIO, Eli Lilly and Company) in combination with fulvestrant for women with HR-positive, HER2-negative advanced or metastatic breast cancer with disease progression following endocrine therapy. In addition, abemaciclib was approved as monotherapy for  women and men with HR-positive, HER2-negative advanced or metastatic breast cancer with disease progression following endocrine therapy and prior chemotherapy in the metastatic setting.

>  <Type>  (378) 
1

>  <targets_id>  (378) 
P11802|Q00534

>  <Inchi>  (378) 
InChI=1S/C27H32F2N8/c1-5-35-8-10-36(11-9-35)16-19-6-7-24(30-14-19)33-27-31-15-22(29)25(34-27)20-12-21(28)26-23(13-20)37(17(2)3)18(4)32-26/h6-7,12-15,17H,5,8-11,16H2,1-4H3,(H,30,31,33,34)

>  <stdInchikey>  (378) 
UZWDCWONPYILKI-UHFFFAOYSA-N

>  <csid>  (378) 
29340700

>  <Links>  (378) 
|http://www.chemspider.com/Chemical-Structure.29340700.html|https://www.ebi.ac.uk/chembldb/compound/inspect/CHEMBL3301610|https://pubchem.ncbi.nlm.nih.gov/compound/46220502|https://go.drugbank.com/drugs/DB12001|https://www.rcsb.org/ligand/6ZV|https://www.ebi.ac.uk/pdbe-srv/pdbechem/chemicalCompound/show/6ZV|https://www.guidetopharmacology.org/GRAC/LigandDisplayForward?7382|https://zinc15.docking.org/substances/ZINC000072318121|https://precision.fda.gov/uniisearch/srs/unii/60UAB198HK|https://www.bindingdb.org/bind/chemsearch/marvin/MolStructure.jsp?monomerid=50110183

>  <LinkName>  (378) 
|ChemSpider|ChEMBL|PubChem|DrugBank|RCSB|PDBe|Guide to Pharmacology|ZINC|FDA SRS|BindingDB

>  <lig_pdb_ID>  (378) 
6ZV

>  <pdb_IDs>  (378) 
5l2s 7o7j 7o7k 7sj3

>  <indicationDB>  (378) 


>  <uniprotId>  (378) 


>  <indicationG2P>  (378) 
None

>  <MW>  (378) 
506.3

>  <HBA>  (378) 
8

>  <HBD>  (378) 
1

>  <NRB>  (378) 
7

>  <TPSA>  (378) 
75.0

>  <LogP>  (378) 
4.9

>  <RoF>  (378) 
1

>  <Melting point>  (378) 
nan

>  <Targets>  (378) 
CDK4; CDK6

>  <Kinase families>  (378) 
CMGC

>  <FDA_approved>  (378) 
Y

$$$$
Baricitinib
     RDKit          2D

 26 29  0  0  0  0  0  0  0  0999 V2000
    7.0516    1.1972    0.0000 C   0  0  0  0  0  0  0  0  0  0  0  0
    6.4880   -0.1929    0.0000 C   0  0  0  0  0  0  0  0  0  0  0  0
    5.0023   -0.3998    0.0000 S   0  0  0  0  0  0  0  0  0  0  0  0
    4.7954    1.0859    0.0000 O   0  0  0  0  0  0  0  0  0  0  0  0
    5.2092   -1.8854    0.0000 O   0  0  0  0  0  0  0  0  0  0  0  0
    3.5166   -0.6066    0.0000 N   0  0  0  0  0  0  0  0  0  0  0  0
    2.3198    0.2976    0.0000 C   0  0  0  0  0  0  0  0  0  0  0  0
    1.4156   -0.8992    0.0000 C   0  0  0  0  0  0  0  0  0  0  0  0
    2.6124   -1.8035    0.0000 C   0  0  0  0  0  0  0  0  0  0  0  0
    2.3198    0.2976    0.0000 C   0  0  0  0  0  0  0  0  0  0  0  0
    3.8084    0.1129    0.0000 C   0  0  0  0  0  0  0  0  0  0  0  0
    5.2975    0.2939    0.0000 N   0  0  0  0  0  0  0  0  0  0  0  0
    0.2188    0.0050    0.0000 N   0  0  0  0  0  0  0  0  0  0  0  0
   -1.2162   -0.4317    0.0000 C   0  0  0  0  0  0  0  0  0  0  0  0
   -2.0750    0.7981    0.0000 C   0  0  0  0  0  0  0  0  0  0  0  0
   -1.1708    1.9949    0.0000 C   0  0  0  0  0  0  0  0  0  0  0  0
    0.2469    1.5048    0.0000 N   0  0  0  0  0  0  0  0  0  0  0  0
   -3.5748    0.8262    0.0000 C   0  0  0  0  0  0  0  0  0  0  0  0
   -4.3490   -0.4586    0.0000 C   0  0  0  0  0  0  0  0  0  0  0  0
   -3.9122   -1.8936    0.0000 C   0  0  0  0  0  0  0  0  0  0  0  0
   -5.1420   -2.7524    0.0000 C   0  0  0  0  0  0  0  0  0  0  0  0
   -6.3388   -1.8482    0.0000 N   0  0  0  0  0  0  0  0  0  0  0  0
   -5.8487   -0.4305    0.0000 C   0  0  0  0  0  0  0  0  0  0  0  0
   -6.5743    0.8823    0.0000 N   0  0  0  0  0  0  0  0  0  0  0  0
   -5.8001    2.1671    0.0000 C   0  0  0  0  0  0  0  0  0  0  0  0
   -4.3003    2.1390    0.0000 N   0  0  0  0  0  0  0  0  0  0  0  0
  1  2  1  0
  2  3  1  0
  3  4  2  0
  3  5  2  0
  3  6  1  0
  6  7  1  0
  7  8  1  0
  8  9  1  0
  8 10  1  0
 10 11  1  0
 11 12  3  0
  8 13  1  0
 13 14  1  0
 14 15  2  0
 15 16  1  0
 16 17  2  0
 15 18  1  0
 18 19  2  0
 19 20  1  0
 20 21  2  0
 21 22  1  0
 22 23  1  0
 23 24  2  0
 24 25  1  0
 25 26  2  0
  9  6  1  0
 17 13  1  0
 26 18  1  0
 23 19  1  0
M  END
>  <BrandName>  (379) 
Olumiant

>  <Applicants>  (379) 
Eli Lilly

>  <CHEMBL_ID>  (379) 
CHEMBL2105759

>  <Canonical_Smiles>  (379) 
CCS(=O)(=O)N1CC(C1)(CC#N)n2cc(cn2)c3c4cc[nH]c4ncn3

>  <Chirality>  (379) 
Achiral Molecule

>  <First_Approval>  (379) 
2017

>  <Phase>  (379) 
4.0

>  <SC_Patent>  (379) 
US-8158616-B2

>  <Synonyms>  (379) 
BARICITINIB | BARICITINIB PHOSPHATE | BARICITINIB PHOSPHATE SALT | INCB-028050 | INCB-28050 | INCB028050 | LY-3009104 | LY3009104 | OLUMIANT

>  <Withdrawn>  (379) 
{'', 'Study NCT04970719 in Bangladesh was Withdrawn during PHASE3 because adequate cases were not available', 'Study NCT05379322 in United Arab Emirates was Withdrawn during PHASE3 because Decision of the local healthcare authority'}

>  <Indications>  (379) 
Indicated for the treatment of moderate to severe active rheumatoid arthritis in adult patients who have responded inadequately to, or who are intolerant to one or more disease-modifying anti-rheumatic drugs as monotherapy or in combination with methotrexate.

>  <Type>  (379) 
1

>  <targets_id>  (379) 
P23458|O60674

>  <Inchi>  (379) 
InChI=1S/C16H17N7O2S/c1-2-26(24,25)22-9-16(10-22,4-5-17)23-8-12(7-21-23)14-13-3-6-18-15(13)20-11-19-14/h3,6-8,11H,2,4,9-10H2,1H3,(H,18,19,20)

>  <stdInchikey>  (379) 
XUZMWHLSFXCVMG-UHFFFAOYSA-N

>  <csid>  (379) 
26373084

>  <Links>  (379) 
|http://www.chemspider.com/Chemical-Structure.26373084.html|https://www.ebi.ac.uk/chembldb/compound/inspect/CHEMBL2105759|https://pubchem.ncbi.nlm.nih.gov/compound/44205240|https://go.drugbank.com/drugs/DB11817|https://www.rcsb.org/ligand/3JW|https://www.ebi.ac.uk/pdbe-srv/pdbechem/chemicalCompound/show/3JW|https://www.guidetopharmacology.org/GRAC/LigandDisplayForward?7792|https://zinc15.docking.org/substances/ZINC000073069247|https://precision.fda.gov/uniisearch/srs/unii/ISP4442I3Y|https://www.bindingdb.org/bind/chemsearch/marvin/MolStructure.jsp?monomerid=50021656

>  <LinkName>  (379) 
|ChemSpider|ChEMBL|PubChem|DrugBank|RCSB|PDBe|Guide to Pharmacology|ZINC|FDA SRS|BindingDB

>  <lig_pdb_ID>  (379) 
3JW

>  <pdb_IDs>  (379) 
4w9x 6vn8 6wto

>  <indicationDB>  (379) 


>  <uniprotId>  (379) 


>  <indicationG2P>  (379) 
None

>  <MW>  (379) 
371.1

>  <HBA>  (379) 
7

>  <HBD>  (379) 
1

>  <NRB>  (379) 
5

>  <TPSA>  (379) 
120.6

>  <LogP>  (379) 
1.1

>  <RoF>  (379) 
0

>  <Melting point>  (379) 
nan

>  <Targets>  (379) 
JAK1; JAK2

>  <Kinase families>  (379) 
Tyr

>  <FDA_approved>  (379) 
Y

$$$$
Lazertinib
     RDKit          2D

 41 45  0  0  0  0  0  0  0  0999 V2000
    8.6793    3.8959    0.0000 C   0  0  0  0  0  0  0  0  0  0  0  0
    7.3647    3.1737    0.0000 N   0  0  0  0  0  0  0  0  0  0  0  0
    6.0818    3.9511    0.0000 C   0  0  0  0  0  0  0  0  0  0  0  0
    7.3328    1.6740    0.0000 C   0  0  0  0  0  0  0  0  0  0  0  0
    6.0181    0.9518    0.0000 C   0  0  0  0  0  0  0  0  0  0  0  0
    4.6611    1.5908    0.0000 C   0  0  0  0  0  0  0  0  0  0  0  0
    3.6339    0.4977    0.0000 N   0  0  0  0  0  0  0  0  0  0  0  0
    4.3562   -0.8170    0.0000 N   0  0  0  0  0  0  0  0  0  0  0  0
    5.8297   -0.5364    0.0000 C   0  0  0  0  0  0  0  0  0  0  0  0
    6.9229   -1.5635    0.0000 C   0  0  0  0  0  0  0  0  0  0  0  0
    6.5799   -3.0238    0.0000 C   0  0  0  0  0  0  0  0  0  0  0  0
    7.6731   -4.0509    0.0000 C   0  0  0  0  0  0  0  0  0  0  0  0
    9.1092   -3.6178    0.0000 C   0  0  0  0  0  0  0  0  0  0  0  0
    9.4521   -2.1575    0.0000 C   0  0  0  0  0  0  0  0  0  0  0  0
    8.3590   -1.1304    0.0000 C   0  0  0  0  0  0  0  0  0  0  0  0
    2.1458    0.6861    0.0000 C   0  0  0  0  0  0  0  0  0  0  0  0
    1.5650    2.0691    0.0000 C   0  0  0  0  0  0  0  0  0  0  0  0
    0.0768    2.2575    0.0000 C   0  0  0  0  0  0  0  0  0  0  0  0
   -0.8304    1.0630    0.0000 N   0  0  0  0  0  0  0  0  0  0  0  0
   -0.2495   -0.3200    0.0000 C   0  0  0  0  0  0  0  0  0  0  0  0
    1.2386   -0.5084    0.0000 N   0  0  0  0  0  0  0  0  0  0  0  0
   -1.1568   -1.5145    0.0000 N   0  0  0  0  0  0  0  0  0  0  0  0
   -2.6449   -1.3261    0.0000 C   0  0  0  0  0  0  0  0  0  0  0  0
   -3.2258    0.0569    0.0000 C   0  0  0  0  0  0  0  0  0  0  0  0
   -4.7139    0.2453    0.0000 C   0  0  0  0  0  0  0  0  0  0  0  0
   -5.6211   -0.9492    0.0000 C   0  0  0  0  0  0  0  0  0  0  0  0
   -5.0403   -2.3322    0.0000 C   0  0  0  0  0  0  0  0  0  0  0  0
   -3.5521   -2.5206    0.0000 C   0  0  0  0  0  0  0  0  0  0  0  0
   -2.9713   -3.9036    0.0000 O   0  0  0  0  0  0  0  0  0  0  0  0
   -3.8785   -5.0981    0.0000 C   0  0  0  0  0  0  0  0  0  0  0  0
   -7.1092   -0.7608    0.0000 N   0  0  0  0  0  0  0  0  0  0  0  0
   -7.6901    0.6222    0.0000 C   0  0  0  0  0  0  0  0  0  0  0  0
   -9.1782    0.8106    0.0000 C   0  0  0  0  0  0  0  0  0  0  0  0
  -10.0855   -0.3839    0.0000 O   0  0  0  0  0  0  0  0  0  0  0  0
   -9.5046   -1.7669    0.0000 C   0  0  0  0  0  0  0  0  0  0  0  0
   -8.0165   -1.9553    0.0000 C   0  0  0  0  0  0  0  0  0  0  0  0
   -5.2948    1.6283    0.0000 N   0  0  0  0  0  0  0  0  0  0  0  0
   -4.3875    2.8228    0.0000 C   0  0  0  0  0  0  0  0  0  0  0  0
   -2.8994    2.6344    0.0000 O   0  0  0  0  0  0  0  0  0  0  0  0
   -4.9684    4.2058    0.0000 C   0  0  0  0  0  0  0  0  0  0  0  0
   -4.0611    5.4003    0.0000 C   0  0  0  0  0  0  0  0  0  0  0  0
  1  2  1  0
  2  3  1  0
  2  4  1  0
  4  5  1  0
  5  6  2  0
  6  7  1  0
  7  8  1  0
  8  9  2  0
  9 10  1  0
 10 11  2  0
 11 12  1  0
 12 13  2  0
 13 14  1  0
 14 15  2  0
  7 16  1  0
 16 17  2  0
 17 18  1  0
 18 19  2  0
 19 20  1  0
 20 21  2  0
 20 22  1  0
 22 23  1  0
 23 24  2  0
 24 25  1  0
 25 26  2  0
 26 27  1  0
 27 28  2  0
 28 29  1  0
 29 30  1  0
 26 31  1  0
 31 32  1  0
 32 33  1  0
 33 34  1  0
 34 35  1  0
 35 36  1  0
 25 37  1  0
 37 38  1  0
 38 39  2  0
 38 40  1  0
 40 41  2  0
  9  5  1  0
 15 10  1  0
 21 16  1  0
 28 23  1  0
 36 31  1  0
M  END
>  <BrandName>  (380) 


>  <Applicants>  (380) 
Genosco

>  <CHEMBL_ID>  (380) 
CHEMBL4558324

>  <Canonical_Smiles>  (380) 
CN(C)Cc1cn(nc1c2ccccc2)c3ccnc(n3)Nc4cc(c(cc4OC)N5CCOCC5)NC(=O)C=C

>  <Chirality>  (380) 
Achiral Molecule

>  <First_Approval>  (380) 
2024

>  <Phase>  (380) 
4.0

>  <SC_Patent>  (380) 
nan

>  <Synonyms>  (380) 
C-18112003-G | GNS-1480 | GNS1480 | JNJ-73841937-AAA | LAZERTINIB | YH-25448 | YH25448

>  <Withdrawn>  (380) 
{''}

>  <Indications>  (380) 
Lazertinib (YH-25448, GNS-1480) is an inhibitor of the aberrant activity of EGFR mutant kinases, that was originally developed by Yuhan Corporation for antineoplastic potential in cancers with (acquired) resistance to existing EGFR tyrosine kinase inhibitors, in particular for EGFR mutation positive, advanced non-small cell lung cancer (NSCLC). In addition to predicted efficacy for the treatment of primary lung and extracranial lesions, lazertinib is expected to be beneficial for NSCLC brain metastases as it is able to cross the blood brain barrier.

>  <Type>  (380) 
nan

>  <targets_id>  (380) 
P00533

>  <Inchi>  (380) 
InChI=1S/C30H34N8O3/c1-5-28(39)32-23-17-24(26(40-4)18-25(23)37-13-15-41-16-14-37)33-30-31-12-11-27(34-30)38-20-22(19-36(2)3)29(35-38)21-9-7-6-8-10-21/h5-12,17-18,20H,1,13-16,19H2,2-4H3,(H,32,39)(H,31,33,34)

>  <stdInchikey>  (380) 
RRMJMHOQSALEJJ-UHFFFAOYSA-N

>  <csid>  (380) 
64835231

>  <Links>  (380) 
|http://www.chemspider.com/Chemical-Structure.64835231.html|https://www.ebi.ac.uk/chembldb/compound/inspect/CHEMBL4558324|https://pubchem.ncbi.nlm.nih.gov/compound/121269225|https://go.drugbank.com/drugs/DB16216|https://www.guidetopharmacology.org/GRAC/LigandDisplayForward?10136|https://precision.fda.gov/uniisearch/srs/unii/4A2Y23XK11

>  <LinkName>  (380) 
|ChemSpider|ChEMBL|PubChem|DrugBank|Guide to Pharmacology|FDA SRS

>  <lig_pdb_ID>  (380) 


>  <pdb_IDs>  (380) 


>  <indicationDB>  (380) 


>  <uniprotId>  (380) 


>  <indicationG2P>  (380) 
None

>  <MW>  (380) 
554.3

>  <HBA>  (380) 
10

>  <HBD>  (380) 
2

>  <NRB>  (380) 
10

>  <TPSA>  (380) 
109.7

>  <LogP>  (380) 
4.1

>  <RoF>  (380) 
1

>  <Melting point>  (380) 
nan

>  <Targets>  (380) 
EGFR

>  <Kinase families>  (380) 
Tyr

>  <FDA_approved>  (380) 
Y

$$$$
Tovorafenib
     RDKit          2D

 32 34  0  0  0  0  0  0  0  0999 V2000
   -3.8663    3.4972    0.0000 C   0  0  0  0  0  0  0  0  0  0  0  0
   -2.9516    2.3084    0.0000 C   0  0  0  0  0  0  0  0  0  0  0  0
   -1.4647    2.5063    0.0000 C   0  0  0  0  0  0  0  0  0  0  0  0
   -0.7507    3.8255    0.0000 N   0  0  0  0  0  0  0  0  0  0  0  0
    0.7245    3.5542    0.0000 C   0  0  0  0  0  0  0  0  0  0  0  0
    0.9224    2.0673    0.0000 C   0  0  0  0  0  0  0  0  0  0  0  0
   -0.4306    1.4196    0.0000 S   0  0  0  0  0  0  0  0  0  0  0  0
    2.2416    1.3534    0.0000 C   0  0  0  0  0  0  0  0  0  0  0  0
    3.5195    2.1389    0.0000 O   0  0  0  0  0  0  0  0  0  0  0  0
    2.2829   -0.1461    0.0000 N   0  0  0  0  0  0  0  0  0  0  0  0
    3.6021   -0.8600    0.0000 C   0  0  0  0  0  0  0  0  0  0  0  0
    3.6435   -2.3594    0.0000 N   0  0  0  0  0  0  0  0  0  0  0  0
    4.9627   -3.0733    0.0000 C   0  0  0  0  0  0  0  0  0  0  0  0
    6.2406   -2.2878    0.0000 C   0  0  0  0  0  0  0  0  0  0  0  0
    6.1992   -0.7884    0.0000 C   0  0  0  0  0  0  0  0  0  0  0  0
    4.8800   -0.0745    0.0000 C   0  0  0  0  0  0  0  0  0  0  0  0
    7.4771   -0.0029    0.0000 C   0  0  0  0  0  0  0  0  0  0  0  0
    8.7550    0.7827    0.0000 F   0  0  0  0  0  0  0  0  0  0  0  0
    8.2626   -1.2807    0.0000 F   0  0  0  0  0  0  0  0  0  0  0  0
    6.6916    1.2750    0.0000 F   0  0  0  0  0  0  0  0  0  0  0  0
    7.5598   -3.0017    0.0000 Cl  0  0  0  0  0  0  0  0  0  0  0  0
   -3.5237    0.9218    0.0000 N   0  0  0  0  0  0  0  0  0  0  0  0
   -5.0106    0.7240    0.0000 C   0  0  0  0  0  0  0  0  0  0  0  0
   -5.9253    1.9127    0.0000 O   0  0  0  0  0  0  0  0  0  0  0  0
   -5.5827   -0.6626    0.0000 C   0  0  0  0  0  0  0  0  0  0  0  0
   -7.0696   -0.8605    0.0000 C   0  0  0  0  0  0  0  0  0  0  0  0
   -7.6417   -2.2471    0.0000 C   0  0  0  0  0  0  0  0  0  0  0  0
   -6.7269   -3.4359    0.0000 N   0  0  0  0  0  0  0  0  0  0  0  0
   -5.2400   -3.2380    0.0000 C   0  0  0  0  0  0  0  0  0  0  0  0
   -4.6679   -1.8514    0.0000 N   0  0  0  0  0  0  0  0  0  0  0  0
   -9.1286   -2.4450    0.0000 N   0  0  0  0  0  0  0  0  0  0  0  0
   -7.9843    0.3283    0.0000 Cl  0  0  0  0  0  0  0  0  0  0  0  0
  1  2  1  0
  2  3  1  0
  3  4  2  0
  4  5  1  0
  5  6  2  0
  6  7  1  0
  6  8  1  0
  8  9  2  0
  8 10  1  0
 10 11  1  0
 11 12  2  0
 12 13  1  0
 13 14  2  0
 14 15  1  0
 15 16  2  0
 15 17  1  0
 17 18  1  0
 17 19  1  0
 17 20  1  0
 14 21  1  0
  2 22  1  0
 22 23  1  0
 23 24  2  0
 23 25  1  0
 25 26  2  0
 26 27  1  0
 27 28  2  0
 28 29  1  0
 29 30  2  0
 27 31  1  0
 26 32  1  0
  7  3  1  0
 16 11  1  0
 30 25  1  0
M  END
>  <BrandName>  (381) 


>  <Applicants>  (381) 
Sunesis Pharmaceuticals

>  <CHEMBL_ID>  (381) 
CHEMBL3348923

>  <Canonical_Smiles>  (381) 
CC(C1=NC=C(S1)C(=O)NC2=NC=C(C(=C2)C(F)(F)F)Cl)NC(=O)C3=C(C(=NC=N3)N)Cl

>  <Chirality>  (381) 
Single Stereoisomer

>  <First_Approval>  (381) 
2024

>  <Phase>  (381) 
4.0

>  <SC_Patent>  (381) 
nan

>  <Synonyms>  (381) 
BIIB-024 | BIIB024 | DAY-101 | DAY101 | MLN-2480 | TAK 580 | TAK-580 | TOVORAFENIB

>  <Withdrawn>  (381) 
{''}

>  <Indications>  (381) 
On April 2024, FDA approved Tovorafenib to treat relapsed or refractory pediatric low-grade glioma

>  <Type>  (381) 
nan

>  <targets_id>  (381) 
nan

>  <Inchi>  (381) 
InChI=1S/C17H12Cl2F3N7O2S/c1-6(28-15(31)12-11(19)13(23)27-5-26-12)16-25-4-9(32-16)14(30)29-10-2-7(17(20,21)22)8(18)3-24-10/h2-6H,1H3,(H,28,31)(H2,23,26,27)(H,24,29,30)/t6-/m1/s1

>  <stdInchikey>  (381) 
VWMJHAFYPMOMGF-ZCFIWIBFSA-N

>  <csid>  (381) 
28637796

>  <Links>  (381) 
|http://www.chemspider.com/Chemical-Structure.28637796.html|https://www.ebi.ac.uk/chembldb/compound/inspect/CHEMBL3348923|https://pubchem.ncbi.nlm.nih.gov/compound/25161177|https://go.drugbank.com/drugs/DB15266|https://www.rcsb.org/ligand/QOP|https://www.ebi.ac.uk/pdbe-srv/pdbechem/chemicalCompound/show/QOP|https://www.guidetopharmacology.org/GRAC/LigandDisplayForward?9977|https://zinc15.docking.org/substances/ZINC000043202464|https://precision.fda.gov/uniisearch/srs/unii/ZN90E4027M|https://www.bindingdb.org/bind/chemsearch/marvin/MolStructure.jsp?monomerid=209864

>  <LinkName>  (381) 
|ChemSpider|ChEMBL|PubChem|DrugBank|RCSB|PDBe|Guide to Pharmacology|ZINC|FDA SRS|BindingDB

>  <lig_pdb_ID>  (381) 
QOP

>  <pdb_IDs>  (381) 
6v34 8f7o

>  <indicationDB>  (381) 


>  <uniprotId>  (381) 


>  <indicationG2P>  (381) 
None

>  <MW>  (381) 
505.0

>  <HBA>  (381) 
8

>  <HBD>  (381) 
3

>  <NRB>  (381) 
5

>  <TPSA>  (381) 
135.8

>  <LogP>  (381) 
4.0

>  <RoF>  (381) 
1

>  <Melting point>  (381) 
nan

>  <Targets>  (381) 
nan

>  <Kinase families>  (381) 


>  <FDA_approved>  (381) 
Y

$$$$
Ipatasertib
     RDKit          2D

 32 35  0  0  0  0  0  0  0  0999 V2000
    2.5973    1.8166    0.0000 C   0  0  0  0  0  0  0  0  0  0  0  0
    4.0442    1.4210    0.0000 C   0  0  0  0  0  0  0  0  0  0  0  0
    5.2147    2.3591    0.0000 C   0  0  0  0  0  0  0  0  0  0  0  0
    6.4685    1.5357    0.0000 C   0  0  0  0  0  0  0  0  0  0  0  0
    6.0729    0.0888    0.0000 C   0  0  0  0  0  0  0  0  0  0  0  0
    4.5746    0.0179    0.0000 C   0  0  0  0  0  0  0  0  0  0  0  0
    3.8868   -1.3151    0.0000 C   0  0  0  0  0  0  0  0  0  0  0  0
    4.6973   -2.5772    0.0000 N   0  0  0  0  0  0  0  0  0  0  0  0
    6.1957   -2.5064    0.0000 C   0  0  0  0  0  0  0  0  0  0  0  0
    6.8834   -1.1733    0.0000 N   0  0  0  0  0  0  0  0  0  0  0  0
    2.3885   -1.3860    0.0000 N   0  0  0  0  0  0  0  0  0  0  0  0
    1.5779   -0.1238    0.0000 C   0  0  0  0  0  0  0  0  0  0  0  0
    0.0796   -0.1947    0.0000 C   0  0  0  0  0  0  0  0  0  0  0  0
   -0.6082   -1.5277    0.0000 N   0  0  0  0  0  0  0  0  0  0  0  0
    0.2024   -2.7899    0.0000 C   0  0  0  0  0  0  0  0  0  0  0  0
    1.7007   -2.7190    0.0000 C   0  0  0  0  0  0  0  0  0  0  0  0
   -2.1065   -1.5986    0.0000 C   0  0  0  0  0  0  0  0  0  0  0  0
   -2.7943   -2.9316    0.0000 O   0  0  0  0  0  0  0  0  0  0  0  0
   -2.9170   -0.3364    0.0000 C   0  0  0  0  0  0  0  0  0  0  0  0
   -2.2293    0.9966    0.0000 C   0  0  0  0  0  0  0  0  0  0  0  0
   -3.0398    2.2587    0.0000 N   0  0  0  0  0  0  0  0  0  0  0  0
   -2.3520    3.5918    0.0000 C   0  0  0  0  0  0  0  0  0  0  0  0
   -3.1626    4.8539    0.0000 C   0  0  0  0  0  0  0  0  0  0  0  0
   -0.8537    3.6626    0.0000 C   0  0  0  0  0  0  0  0  0  0  0  0
   -4.4154   -0.4073    0.0000 C   0  0  0  0  0  0  0  0  0  0  0  0
   -5.2259    0.8548    0.0000 C   0  0  0  0  0  0  0  0  0  0  0  0
   -6.7242    0.7840    0.0000 C   0  0  0  0  0  0  0  0  0  0  0  0
   -7.4120   -0.5491    0.0000 C   0  0  0  0  0  0  0  0  0  0  0  0
   -6.6015   -1.8112    0.0000 C   0  0  0  0  0  0  0  0  0  0  0  0
   -5.1032   -1.7403    0.0000 C   0  0  0  0  0  0  0  0  0  0  0  0
   -8.9103   -0.6199    0.0000 Cl  0  0  0  0  0  0  0  0  0  0  0  0
    7.8716    2.0661    0.0000 O   0  0  0  0  0  0  0  0  0  0  0  0
  2  1  1  6
  2  3  1  0
  3  4  1  0
  4  5  1  0
  5  6  2  0
  6  7  1  0
  7  8  2  0
  8  9  1  0
  9 10  2  0
  7 11  1  0
 11 12  1  0
 12 13  1  0
 13 14  1  0
 14 15  1  0
 15 16  1  0
 14 17  1  0
 17 18  2  0
 17 19  1  0
 19 20  1  1
 20 21  1  0
 21 22  1  0
 22 23  1  0
 22 24  1  0
 19 25  1  0
 25 26  2  0
 26 27  1  0
 27 28  2  0
 28 29  1  0
 29 30  2  0
 28 31  1  0
  4 32  1  1
  6  2  1  0
 10  5  1  0
 16 11  1  0
 30 25  1  0
M  END
>  <BrandName>  (382) 


>  <Applicants>  (382) 
Hoffmann-La Roche

>  <CHEMBL_ID>  (382) 
CHEMBL2177390

>  <Canonical_Smiles>  (382) 
C[C@@H]1C[C@H](c2c1c(ncn2)N3CCN(CC3)C(=O)[C@H](CNC(C)C)c4ccc(cc4)Cl)O

>  <Chirality>  (382) 
Single Stereoisomer

>  <First_Approval>  (382) 
nan

>  <Phase>  (382) 
4.0

>  <SC_Patent>  (382) 
nan

>  <Synonyms>  (382) 
GDC-0068 | IPATASERTIB | RG-7440 | RG7440

>  <Withdrawn>  (382) 
{'', 'Study NCT04561817 in United States was Withdrawn during PHASE2 because Evolving data with Ipatasertib that changes the known risk / benefit background in pursuing future studies'}

>  <Indications>  (382) 
nan

>  <Type>  (382) 
1

>  <targets_id>  (382) 
P31749|P31751|Q9Y243

>  <Inchi>  (382) 
InChI=1S/C24H32ClN5O2/c1-15(2)26-13-19(17-4-6-18(25)7-5-17)24(32)30-10-8-29(9-11-30)23-21-16(3)12-20(31)22(21)27-14-28-23/h4-7,14-16,19-20,26,31H,8-13H2,1-3H3/t16-,19-,20-/m1/s1

>  <stdInchikey>  (382) 
GRZXWCHAXNAUHY-NSISKUIASA-N

>  <csid>  (382) 
28189084

>  <Links>  (382) 
|http://www.chemspider.com/Chemical-Structure.28189084.html|https://www.ebi.ac.uk/chembldb/compound/inspect/CHEMBL2177390|https://pubchem.ncbi.nlm.nih.gov/compound/24788740|https://go.drugbank.com/drugs/DB11743|https://www.rcsb.org/ligand/0RF|https://www.ebi.ac.uk/pdbe-srv/pdbechem/chemicalCompound/show/0RF|https://www.guidetopharmacology.org/GRAC/LigandDisplayForward?7887|https://zinc15.docking.org/substances/ZINC000068250459|https://precision.fda.gov/uniisearch/srs/unii/524Y3IB4HQ|https://www.bindingdb.org/bind/chemsearch/marvin/MolStructure.jsp?monomerid=50398379

>  <LinkName>  (382) 
|ChemSpider|ChEMBL|PubChem|DrugBank|RCSB|PDBe|Guide to Pharmacology|ZINC|FDA SRS|BindingDB

>  <lig_pdb_ID>  (382) 
0RF

>  <pdb_IDs>  (382) 
4ekl

>  <indicationDB>  (382) 


>  <uniprotId>  (382) 


>  <indicationG2P>  (382) 
None

>  <MW>  (382) 
457.2

>  <HBA>  (382) 
6

>  <HBD>  (382) 
2

>  <NRB>  (382) 
6

>  <TPSA>  (382) 
81.6

>  <LogP>  (382) 
3.1

>  <RoF>  (382) 
0

>  <Melting point>  (382) 
nan

>  <Targets>  (382) 
AKT1; AKT2; AKT3

>  <Kinase families>  (382) 
AGC

>  <FDA_approved>  (382) 
Y

$$$$
Zanubrutinib
     RDKit          2D

 35 39  0  0  0  0  0  0  0  0999 V2000
   -7.3301    5.3998    0.0000 C   0  0  0  0  0  0  0  0  0  0  0  0
   -6.4261    4.2029    0.0000 C   0  0  0  0  0  0  0  0  0  0  0  0
   -7.0106    2.8215    0.0000 C   0  0  0  0  0  0  0  0  0  0  0  0
   -8.4993    2.6370    0.0000 O   0  0  0  0  0  0  0  0  0  0  0  0
   -6.1066    1.6245    0.0000 N   0  0  0  0  0  0  0  0  0  0  0  0
   -4.6180    1.8090    0.0000 C   0  0  0  0  0  0  0  0  0  0  0  0
   -3.7139    0.6120    0.0000 C   0  0  0  0  0  0  0  0  0  0  0  0
   -4.2985   -0.7694    0.0000 C   0  0  0  0  0  0  0  0  0  0  0  0
   -5.7871   -0.9539    0.0000 C   0  0  0  0  0  0  0  0  0  0  0  0
   -6.6912    0.2431    0.0000 C   0  0  0  0  0  0  0  0  0  0  0  0
   -3.3945   -1.9664    0.0000 C   0  0  0  0  0  0  0  0  0  0  0  0
   -3.9790   -3.3478    0.0000 C   0  0  0  0  0  0  0  0  0  0  0  0
   -3.0750   -4.5447    0.0000 C   0  0  0  0  0  0  0  0  0  0  0  0
   -1.5864   -4.3603    0.0000 N   0  0  0  0  0  0  0  0  0  0  0  0
   -1.0018   -2.9789    0.0000 C   0  0  0  0  0  0  0  0  0  0  0  0
   -1.9059   -1.7819    0.0000 N   0  0  0  0  0  0  0  0  0  0  0  0
   -1.0468   -0.5522    0.0000 N   0  0  0  0  0  0  0  0  0  0  0  0
    0.3881   -0.9892    0.0000 C   0  0  0  0  0  0  0  0  0  0  0  0
    0.4159   -2.4890    0.0000 C   0  0  0  0  0  0  0  0  0  0  0  0
    1.6456   -3.3480    0.0000 C   0  0  0  0  0  0  0  0  0  0  0  0
    1.5165   -4.8424    0.0000 O   0  0  0  0  0  0  0  0  0  0  0  0
    3.0044   -2.7126    0.0000 N   0  0  0  0  0  0  0  0  0  0  0  0
    1.5851   -0.0852    0.0000 C   0  0  0  0  0  0  0  0  0  0  0  0
    2.9665   -0.6698    0.0000 C   0  0  0  0  0  0  0  0  0  0  0  0
    4.1634    0.2343    0.0000 C   0  0  0  0  0  0  0  0  0  0  0  0
    3.9790    1.7229    0.0000 C   0  0  0  0  0  0  0  0  0  0  0  0
    2.5976    2.3075    0.0000 C   0  0  0  0  0  0  0  0  0  0  0  0
    1.4006    1.4034    0.0000 C   0  0  0  0  0  0  0  0  0  0  0  0
    5.1759    2.6269    0.0000 O   0  0  0  0  0  0  0  0  0  0  0  0
    6.5573    2.0424    0.0000 C   0  0  0  0  0  0  0  0  0  0  0  0
    6.7418    0.5538    0.0000 C   0  0  0  0  0  0  0  0  0  0  0  0
    8.1232   -0.0308    0.0000 C   0  0  0  0  0  0  0  0  0  0  0  0
    9.3201    0.8732    0.0000 C   0  0  0  0  0  0  0  0  0  0  0  0
    9.1357    2.3618    0.0000 C   0  0  0  0  0  0  0  0  0  0  0  0
    7.7543    2.9464    0.0000 C   0  0  0  0  0  0  0  0  0  0  0  0
  1  2  2  0
  2  3  1  0
  3  4  2  0
  3  5  1  0
  5  6  1  0
  6  7  1  0
  7  8  1  0
  8  9  1  0
  9 10  1  0
  8 11  1  0
 11 12  1  0
 12 13  1  0
 13 14  1  0
 14 15  1  0
 15 16  1  0
 16 17  1  0
 17 18  2  0
 18 19  1  0
 19 20  1  0
 20 21  2  0
 20 22  1  0
 18 23  1  0
 23 24  2  0
 24 25  1  0
 25 26  2  0
 26 27  1  0
 27 28  2  0
 26 29  1  0
 29 30  1  0
 30 31  2  0
 31 32  1  0
 32 33  2  0
 33 34  1  0
 34 35  2  0
 10  5  1  0
 16 11  1  0
 19 15  2  0
 28 23  1  0
 35 30  1  0
M  END
>  <BrandName>  (383) 
Brukinsa

>  <Applicants>  (383) 
BeiGene

>  <CHEMBL_ID>  (383) 
CHEMBL3936761

>  <Canonical_Smiles>  (383) 
C=CC(=O)N1CCC(CC1)C2CCNc3n2nc(c3C(=O)N)c4ccc(cc4)Oc5ccccc5

>  <Chirality>  (383) 
Single Stereoisomer

>  <First_Approval>  (383) 
2019

>  <Phase>  (383) 
4.0

>  <SC_Patent>  (383) 
US-9447106-B2

>  <Synonyms>  (383) 
|ZFCR REGIMEN|BTK-INHB|ZANUBRUTINIB|BRUKINSA|BGB3111|BRUKISA|C27H29N5O3|BGB-3111|ZANUBRUTINIB PILL|ZBR REGIMEN|ZR-ICE|G-POLA-ZLP|POLA-ZR2P|BTK INIHIBITOR|BGB- 3111|RCZ WITH CHOP|BDB-3111|ZPR|BGB 3111|PART A

>  <Withdrawn>  (383) 
{''}

>  <Indications>  (383) 
Zanubrutinib (BGB-3111) is a potent, selective and and irreversible BTK inhibitor that is being investigated for clinical utility in the treatment of hematological cancers, such as non-Hodgkin's lymphoma and chronic lymphocytic leukemia (CLL) [<a href='javascript:callRef("ReferenceDisplayForward?referenceId=34570,34571&displayId=1,2", 960, 600)' title="1. Robak P, Robak T. (2017) Expert Opin Investig Drugs. 26 (11): 1249-1265; 2. Thompson PA, Burger JA. (2018) Expert Opin Investig Drugs. 27 (1): 31-42">1-2</a>].

>  <Type>  (383) 
nan

>  <targets_id>  (383) 
nan

>  <Inchi>  (383) 
InChI=1S/C27H29N5O3/c1-2-23(33)31-16-13-18(14-17-31)22-12-15-29-27-24(26(28)34)25(30-32(22)27)19-8-10-21(11-9-19)35-20-6-4-3-5-7-20/h2-11,18,22,29H,1,12-17H2,(H2,28,34)/t22-/m0/s1

>  <stdInchikey>  (383) 
RNOAOAWBMHREKO-UHFFFAOYSA-N

>  <csid>  (383) 
60600294

>  <Links>  (383) 
|http://www.chemspider.com/Chemical-Structure.60600294.html|https://www.ebi.ac.uk/chembldb/compound/inspect/CHEMBL3973435|https://pubchem.ncbi.nlm.nih.gov/compound/135905454|https://www.bindingdb.org/bind/chemsearch/marvin/MolStructure.jsp?monomerid=249900

>  <LinkName>  (383) 
|ChemSpider|ChEMBL|PubChem|BindingDB

>  <lig_pdb_ID>  (383) 


>  <pdb_IDs>  (383) 


>  <indicationDB>  (383) 


>  <uniprotId>  (383) 


>  <indicationG2P>  (383) 


>  <MW>  (383) 
471.2

>  <HBA>  (383) 
6

>  <HBD>  (383) 
2

>  <NRB>  (383) 
6

>  <TPSA>  (383) 
102.5

>  <LogP>  (383) 
4.2

>  <RoF>  (383) 
0

>  <Melting point>  (383) 
nan

>  <Targets>  (383) 
nan

>  <Kinase families>  (383) 


>  <FDA_approved>  (383) 
Y

$$$$
Pexidartinib
     RDKit          2D

 29 32  0  0  0  0  0  0  0  0999 V2000
    1.5474   -2.4840    0.0000 C   0  0  0  0  0  0  0  0  0  0  0  0
    0.0478   -2.4510    0.0000 C   0  0  0  0  0  0  0  0  0  0  0  0
   -0.6735   -1.1358    0.0000 C   0  0  0  0  0  0  0  0  0  0  0  0
    0.1049    0.1465    0.0000 N   0  0  0  0  0  0  0  0  0  0  0  0
    1.6045    0.1135    0.0000 C   0  0  0  0  0  0  0  0  0  0  0  0
    2.3258   -1.2017    0.0000 C   0  0  0  0  0  0  0  0  0  0  0  0
    3.8254   -1.2347    0.0000 C   0  0  0  0  0  0  0  0  0  0  0  0
    4.6038    0.0475    0.0000 C   0  0  0  0  0  0  0  0  0  0  0  0
    4.0240    1.4309    0.0000 C   0  0  0  0  0  0  0  0  0  0  0  0
    5.1605    2.4099    0.0000 N   0  0  0  0  0  0  0  0  0  0  0  0
    6.4427    1.6315    0.0000 C   0  0  0  0  0  0  0  0  0  0  0  0
    6.0987    0.1715    0.0000 C   0  0  0  0  0  0  0  0  0  0  0  0
    7.1910   -0.8564    0.0000 C   0  0  0  0  0  0  0  0  0  0  0  0
    8.6275   -0.4244    0.0000 C   0  0  0  0  0  0  0  0  0  0  0  0
    8.9715    1.0356    0.0000 C   0  0  0  0  0  0  0  0  0  0  0  0
    7.8791    2.0636    0.0000 N   0  0  0  0  0  0  0  0  0  0  0  0
    9.7199   -1.4523    0.0000 Cl  0  0  0  0  0  0  0  0  0  0  0  0
   -2.1731   -1.1028    0.0000 N   0  0  0  0  0  0  0  0  0  0  0  0
   -2.8944    0.2124    0.0000 C   0  0  0  0  0  0  0  0  0  0  0  0
   -4.3940    0.2454    0.0000 C   0  0  0  0  0  0  0  0  0  0  0  0
   -5.1153    1.5606    0.0000 C   0  0  0  0  0  0  0  0  0  0  0  0
   -6.6149    1.5936    0.0000 C   0  0  0  0  0  0  0  0  0  0  0  0
   -7.3933    0.3113    0.0000 C   0  0  0  0  0  0  0  0  0  0  0  0
   -6.6720   -1.0039    0.0000 N   0  0  0  0  0  0  0  0  0  0  0  0
   -5.1724   -1.0369    0.0000 C   0  0  0  0  0  0  0  0  0  0  0  0
   -8.8929    0.3443    0.0000 C   0  0  0  0  0  0  0  0  0  0  0  0
  -10.3926    0.3773    0.0000 F   0  0  0  0  0  0  0  0  0  0  0  0
   -8.8600    1.8439    0.0000 F   0  0  0  0  0  0  0  0  0  0  0  0
   -8.9259   -1.1554    0.0000 F   0  0  0  0  0  0  0  0  0  0  0  0
  1  2  2  0
  2  3  1  0
  3  4  2  0
  4  5  1  0
  5  6  2  0
  6  7  1  0
  7  8  1  0
  8  9  2  0
  9 10  1  0
 10 11  1  0
 11 12  2  0
 12 13  1  0
 13 14  2  0
 14 15  1  0
 15 16  2  0
 14 17  1  0
  3 18  1  0
 18 19  1  0
 19 20  1  0
 20 21  2  0
 21 22  1  0
 22 23  2  0
 23 24  1  0
 24 25  2  0
 23 26  1  0
 26 27  1  0
 26 28  1  0
 26 29  1  0
  6  1  1  0
 12  8  1  0
 16 11  1  0
 25 20  1  0
M  END
>  <BrandName>  (384) 
Turalio

>  <Applicants>  (384) 
Daiichi Sankyo

>  <CHEMBL_ID>  (384) 
CHEMBL3813873

>  <Canonical_Smiles>  (384) 
c1cc(ncc1Cc2c[nH]c3c2cc(cn3)Cl)NCc4ccc(nc4)C(F)(F)F

>  <Chirality>  (384) 
Achiral Molecule

>  <First_Approval>  (384) 
2019

>  <Phase>  (384) 
4.0

>  <SC_Patent>  (384) 
US-7893075-B2

>  <Synonyms>  (384) 
CML-261 | PEXIDARTINIB | PLX-3397 | PLX3397

>  <Withdrawn>  (384) 
{''}

>  <Indications>  (384) 
On august 2019, FDA approved pexidartinib to treat adult patients with symptomatic tenosynovial giant cell tumor

>  <Type>  (384) 
2

>  <targets_id>  (384) 
P36888|P10721|P07333

>  <Inchi>  (384) 
InChI=1S/C20H15ClF3N5/c21-15-6-16-14(10-28-19(16)29-11-15)5-12-2-4-18(26-7-12)27-9-13-1-3-17(25-8-13)20(22,23)24/h1-4,6-8,10-11H,5,9H2,(H,26,27)(H,28,29)

>  <stdInchikey>  (384) 
JGWRKYUXBBNENE-UHFFFAOYSA-N

>  <csid>  (384) 
35308322

>  <Links>  (384) 
|http://www.chemspider.com/Chemical-Structure.35308322.html|https://www.ebi.ac.uk/chembldb/compound/inspect/CHEMBL3813873|https://pubchem.ncbi.nlm.nih.gov/compound/25151352|https://go.drugbank.com/drugs/DB12978|https://www.rcsb.org/ligand/P31|https://www.ebi.ac.uk/pdbe-srv/pdbechem/chemicalCompound/show/P31|https://www.guidetopharmacology.org/GRAC/LigandDisplayForward?8710|https://zinc15.docking.org/substances/ZINC000115705166|https://precision.fda.gov/uniisearch/srs/unii/6783M2LV5X|https://www.bindingdb.org/bind/chemsearch/marvin/MolStructure.jsp?monomerid=50177716

>  <LinkName>  (384) 
|ChemSpider|ChEMBL|PubChem|DrugBank|RCSB|PDBe|Guide to Pharmacology|ZINC|FDA SRS|BindingDB

>  <lig_pdb_ID>  (384) 
P31

>  <pdb_IDs>  (384) 
4r7h 7khg

>  <indicationDB>  (384) 


>  <uniprotId>  (384) 


>  <indicationG2P>  (384) 
None

>  <MW>  (384) 
417.1

>  <HBA>  (384) 
4

>  <HBD>  (384) 
2

>  <NRB>  (384) 
5

>  <TPSA>  (384) 
66.5

>  <LogP>  (384) 
5.2

>  <RoF>  (384) 
1

>  <Melting point>  (384) 
nan

>  <Targets>  (384) 
FLT3; KIT; CSF1R

>  <Kinase families>  (384) 
Tyr

>  <FDA_approved>  (384) 
Y

$$$$
Vemurafenib
     RDKit          2D

 33 36  0  0  0  0  0  0  0  0999 V2000
  -10.0263   -0.0831    0.0000 C   0  0  0  0  0  0  0  0  0  0  0  0
   -8.5337   -0.2316    0.0000 C   0  0  0  0  0  0  0  0  0  0  0  0
   -7.9160   -1.5985    0.0000 C   0  0  0  0  0  0  0  0  0  0  0  0
   -6.4234   -1.7470    0.0000 S   0  0  0  0  0  0  0  0  0  0  0  0
   -6.2749   -0.2544    0.0000 O   0  0  0  0  0  0  0  0  0  0  0  0
   -6.5719   -3.2397    0.0000 O   0  0  0  0  0  0  0  0  0  0  0  0
   -4.9308   -1.8955    0.0000 N   0  0  0  0  0  0  0  0  0  0  0  0
   -4.0558   -0.6772    0.0000 C   0  0  0  0  0  0  0  0  0  0  0  0
   -4.6735    0.6898    0.0000 C   0  0  0  0  0  0  0  0  0  0  0  0
   -3.7986    1.9082    0.0000 C   0  0  0  0  0  0  0  0  0  0  0  0
   -2.3059    1.7596    0.0000 C   0  0  0  0  0  0  0  0  0  0  0  0
   -1.6883    0.3927    0.0000 C   0  0  0  0  0  0  0  0  0  0  0  0
   -2.5632   -0.8257    0.0000 C   0  0  0  0  0  0  0  0  0  0  0  0
   -1.9455   -2.1926    0.0000 F   0  0  0  0  0  0  0  0  0  0  0  0
   -0.1956    0.2442    0.0000 C   0  0  0  0  0  0  0  0  0  0  0  0
    0.4221   -1.1227    0.0000 O   0  0  0  0  0  0  0  0  0  0  0  0
    0.6793    1.4626    0.0000 C   0  0  0  0  0  0  0  0  0  0  0  0
    0.2079    2.8866    0.0000 C   0  0  0  0  0  0  0  0  0  0  0  0
    1.4165    3.7750    0.0000 N   0  0  0  0  0  0  0  0  0  0  0  0
    2.6349    2.9000    0.0000 C   0  0  0  0  0  0  0  0  0  0  0  0
    2.1793    1.4709    0.0000 C   0  0  0  0  0  0  0  0  0  0  0  0
    3.1891    0.3618    0.0000 C   0  0  0  0  0  0  0  0  0  0  0  0
    4.6546    0.6817    0.0000 C   0  0  0  0  0  0  0  0  0  0  0  0
    5.1102    2.1109    0.0000 C   0  0  0  0  0  0  0  0  0  0  0  0
    4.1004    3.2200    0.0000 N   0  0  0  0  0  0  0  0  0  0  0  0
    5.6645   -0.4274    0.0000 C   0  0  0  0  0  0  0  0  0  0  0  0
    5.2089   -1.8565    0.0000 C   0  0  0  0  0  0  0  0  0  0  0  0
    6.2187   -2.9657    0.0000 C   0  0  0  0  0  0  0  0  0  0  0  0
    7.6842   -2.6457    0.0000 C   0  0  0  0  0  0  0  0  0  0  0  0
    8.1398   -1.2165    0.0000 C   0  0  0  0  0  0  0  0  0  0  0  0
    7.1299   -0.1074    0.0000 C   0  0  0  0  0  0  0  0  0  0  0  0
    8.6941   -3.7548    0.0000 Cl  0  0  0  0  0  0  0  0  0  0  0  0
   -1.4310    2.9780    0.0000 F   0  0  0  0  0  0  0  0  0  0  0  0
  1  2  1  0
  2  3  1  0
  3  4  1  0
  4  5  2  0
  4  6  2  0
  4  7  1  0
  7  8  1  0
  8  9  2  0
  9 10  1  0
 10 11  2  0
 11 12  1  0
 12 13  2  0
 13 14  1  0
 12 15  1  0
 15 16  2  0
 15 17  1  0
 17 18  2  0
 18 19  1  0
 19 20  1  0
 20 21  2  0
 21 22  1  0
 22 23  2  0
 23 24  1  0
 24 25  2  0
 23 26  1  0
 26 27  2  0
 27 28  1  0
 28 29  2  0
 29 30  1  0
 30 31  2  0
 29 32  1  0
 11 33  1  0
 13  8  1  0
 21 17  1  0
 25 20  1  0
 31 26  1  0
M  END
>  <BrandName>  (385) 
Zelboraf

>  <Applicants>  (385) 
Hoffmann-La Roche

>  <CHEMBL_ID>  (385) 
CHEMBL1229517

>  <Canonical_Smiles>  (385) 
CCCS(=O)(=O)Nc1ccc(c(c1F)C(=O)c2c[nH]c3c2cc(cn3)c4ccc(cc4)Cl)F

>  <Chirality>  (385) 
Achiral Molecule

>  <First_Approval>  (385) 
2011

>  <Phase>  (385) 
4.0

>  <SC_Patent>  (385) 
US-7504509-B2

>  <Synonyms>  (385) 
PLX-4032 | PLX4032 | RG 7204 | RG-7204 | RO 5185426 | RO-51-85426 | RO-5185426 | VEMURAFENIB | ZELBORAF

>  <Withdrawn>  (385) 
{'', 'Study NCT05238831 in unknown country was Withdrawn during EARLY_PHASE1 because Withdrawn due to a change in therapeutic interventions', 'Study NCT01843738 in United States was Withdrawn during PHASE1 because Competing Trials', 'Study NCT02145910 in unknown country was Withdrawn during PHASE1 because Study was never opened to accrual There is no clinical benefit to patients', 'Study NCT02427893 in United States was Withdrawn during PHASE3 because no patients were enrolled', 'Study NCT03005639 in United States was Withdrawn during PHASE2 because Sponsor has decided to close study'}

>  <Indications>  (385) 
Vemurafenib is approved since 2011 for the treatment of metastatic melanoma with a mutation on BRAF in the valine located in the exon 15 at codon 600, this mutation is denominated as V600E.

>  <Type>  (385) 
1.5

>  <targets_id>  (385) 
P15056

>  <Inchi>  (385) 
InChI=1S/C23H18ClF2N3O3S/c1-2-9-33(31,32)29-19-8-7-18(25)20(21(19)26)22(30)17-12-28-23-16(17)10-14(11-27-23)13-3-5-15(24)6-4-13/h3-8,10-12,29H,2,9H2,1H3,(H,27,28)

>  <stdInchikey>  (385) 
GPXBXXGIAQBQNI-UHFFFAOYSA-N

>  <csid>  (385) 
24747352

>  <Links>  (385) 
|http://www.chemspider.com/Chemical-Structure.24747352.html|https://www.ebi.ac.uk/chembldb/compound/inspect/CHEMBL1229517|https://pubchem.ncbi.nlm.nih.gov/compound/42611257|https://go.drugbank.com/drugs/DB08881|https://www.rcsb.org/ligand/032|https://www.ebi.ac.uk/pdbe-srv/pdbechem/chemicalCompound/show/032|https://www.guidetopharmacology.org/GRAC/LigandDisplayForward?5893|https://zinc15.docking.org/substances/ZINC000052509366|https://precision.fda.gov/uniisearch/srs/unii/207SMY3FQT|https://www.bindingdb.org/bind/chemsearch/marvin/MolStructure.jsp?monomerid=50396483

>  <LinkName>  (385) 
|ChemSpider|ChEMBL|PubChem|DrugBank|RCSB|PDBe|Guide to Pharmacology|ZINC|FDA SRS|BindingDB

>  <lig_pdb_ID>  (385) 
032

>  <pdb_IDs>  (385) 
3og7 4rzv 5hes

>  <indicationDB>  (385) 


>  <uniprotId>  (385) 


>  <indicationG2P>  (385) 
None

>  <MW>  (385) 
489.1

>  <HBA>  (385) 
4

>  <HBD>  (385) 
2

>  <NRB>  (385) 
7

>  <TPSA>  (385) 
91.9

>  <LogP>  (385) 
5.5

>  <RoF>  (385) 
1

>  <Melting point>  (385) 
272C

>  <Targets>  (385) 
BRAF

>  <Kinase families>  (385) 
TKL

>  <FDA_approved>  (385) 
Y

$$$$
Trametinib
     RDKit          2D

 37 41  0  0  0  0  0  0  0  0999 V2000
   -2.2821   -1.6501    0.0000 C   0  0  0  0  0  0  0  0  0  0  0  0
   -0.8739   -1.1334    0.0000 C   0  0  0  0  0  0  0  0  0  0  0  0
   -0.6172    0.3445    0.0000 C   0  0  0  0  0  0  0  0  0  0  0  0
    0.7910    0.8612    0.0000 C   0  0  0  0  0  0  0  0  0  0  0  0
    1.9425   -0.1000    0.0000 C   0  0  0  0  0  0  0  0  0  0  0  0
    1.6859   -1.5779    0.0000 N   0  0  0  0  0  0  0  0  0  0  0  0
    0.2777   -2.0946    0.0000 C   0  0  0  0  0  0  0  0  0  0  0  0
    0.0211   -3.5724    0.0000 O   0  0  0  0  0  0  0  0  0  0  0  0
    2.8375   -2.5391    0.0000 C   0  0  0  0  0  0  0  0  0  0  0  0
    3.3507    0.4167    0.0000 N   0  0  0  0  0  0  0  0  0  0  0  0
    4.5023   -0.5445    0.0000 C   0  0  0  0  0  0  0  0  0  0  0  0
    4.2457   -2.0224    0.0000 C   0  0  0  0  0  0  0  0  0  0  0  0
    5.3972   -2.9835    0.0000 C   0  0  0  0  0  0  0  0  0  0  0  0
    6.8054   -2.4669    0.0000 C   0  0  0  0  0  0  0  0  0  0  0  0
    7.0621   -0.9890    0.0000 C   0  0  0  0  0  0  0  0  0  0  0  0
    5.9105   -0.0278    0.0000 C   0  0  0  0  0  0  0  0  0  0  0  0
    6.1671    1.4501    0.0000 F   0  0  0  0  0  0  0  0  0  0  0  0
    7.9570   -3.4280    0.0000 I   0  0  0  0  0  0  0  0  0  0  0  0
    1.0476    2.3391    0.0000 C   0  0  0  0  0  0  0  0  0  0  0  0
    2.4558    2.8558    0.0000 O   0  0  0  0  0  0  0  0  0  0  0  0
   -0.1040    3.3003    0.0000 N   0  0  0  0  0  0  0  0  0  0  0  0
   -1.5122    2.7836    0.0000 C   0  0  0  0  0  0  0  0  0  0  0  0
   -2.6637    3.7448    0.0000 O   0  0  0  0  0  0  0  0  0  0  0  0
   -1.7688    1.3057    0.0000 N   0  0  0  0  0  0  0  0  0  0  0  0
   -3.1770    0.7890    0.0000 C   0  0  0  0  0  0  0  0  0  0  0  0
   -4.3286    1.7502    0.0000 C   0  0  0  0  0  0  0  0  0  0  0  0
   -5.7368    1.2335    0.0000 C   0  0  0  0  0  0  0  0  0  0  0  0
   -5.9934   -0.2444    0.0000 C   0  0  0  0  0  0  0  0  0  0  0  0
   -4.8418   -1.2056    0.0000 C   0  0  0  0  0  0  0  0  0  0  0  0
   -3.4336   -0.6889    0.0000 C   0  0  0  0  0  0  0  0  0  0  0  0
   -5.0985   -2.6835    0.0000 N   0  0  0  0  0  0  0  0  0  0  0  0
   -6.5067   -3.2001    0.0000 C   0  0  0  0  0  0  0  0  0  0  0  0
   -7.6582   -2.2390    0.0000 O   0  0  0  0  0  0  0  0  0  0  0  0
   -6.7633   -4.6780    0.0000 C   0  0  0  0  0  0  0  0  0  0  0  0
    0.1527    4.7782    0.0000 C   0  0  0  0  0  0  0  0  0  0  0  0
   -0.3640    6.1864    0.0000 C   0  0  0  0  0  0  0  0  0  0  0  0
    1.1138    5.9297    0.0000 C   0  0  0  0  0  0  0  0  0  0  0  0
  1  2  1  0
  2  3  2  0
  3  4  1  0
  4  5  2  0
  5  6  1  0
  6  7  1  0
  7  8  2  0
  6  9  1  0
  5 10  1  0
 10 11  1  0
 11 12  2  0
 12 13  1  0
 13 14  2  0
 14 15  1  0
 15 16  2  0
 16 17  1  0
 14 18  1  0
  4 19  1  0
 19 20  2  0
 19 21  1  0
 21 22  1  0
 22 23  2  0
 22 24  1  0
 24 25  1  0
 25 26  2  0
 26 27  1  0
 27 28  2  0
 28 29  1  0
 29 30  2  0
 29 31  1  0
 31 32  1  0
 32 33  2  0
 32 34  1  0
 21 35  1  0
 35 36  1  0
 36 37  1  0
  7  2  1  0
 24  3  1  0
 16 11  1  0
 30 25  1  0
 37 35  1  0
M  END
>  <BrandName>  (386) 
Mekinist

>  <Applicants>  (386) 
GlaxoSmithKline

>  <CHEMBL_ID>  (386) 
CHEMBL2105741

>  <Canonical_Smiles>  (386) 
Cc1c2c(c(n(c1=O)C)Nc3ccc(cc3F)I)c(=O)n(c(=O)n2c4cccc(c4)NC(=O)C)C5CC5

>  <Chirality>  (386) 
Achiral Molecule

>  <First_Approval>  (386) 
2013

>  <Phase>  (386) 
4.0

>  <SC_Patent>  (386) 
US-7378423-B2

>  <Synonyms>  (386) 
GSK-1120212 | GSK1120212 | JTP 74057 | JTP-74057 | MEKINIST | TMT-212 | TMT212 | TRAMETINIB

>  <Withdrawn>  (386) 
{'', 'Study NCT02342600 in unknown country was Withdrawn during PHASE2 because Supporting company withdrew interest', 'Study NCT02915666 in United States was Withdrawn during PHASE1 because No subjects consented for enrollment on this study', 'Study NCT02143050 in United States was Withdrawn during PHASE1 because No participant enrollment', 'Study NCT02939846 in unknown country was Withdrawn during PHASE1 because Change in strategy', 'Study NCT03266159 in unknown country was Withdrawn during PHASE2 because Study withdrawn before active to fully evaluate impact of changing practice in target population', 'Study NCT03972046 in United States was Withdrawn during PHASE2 because Principal investigator leaving study site; no replacement PI will be sought', 'Study NCT04739566 in Russian Federation was Withdrawn during PHASE2 because Lack of funding', 'Study NCT02447939 in unknown country was Withdrawn during PHASE1 because Change in strategy', 'Study NCT02300935 in United States was Withdrawn during PHASE1 because Study concept was terminated', 'Study NCT03794297 in United States was Withdrawn during PHASE2 because Inadequate accrual rate', 'Study NCT05299580 in Italy was Withdrawn during PHASE2 because lack of enrollment', 'Study NCT05677373 in unknown country was Withdrawn during PHASE1 because The drug company supporting this trial has withdrawn support, including the ability to provide study agent', 'Study NCT01938456 in unknown country was Withdrawn during PHASE1 because This study was Cancelled Before Active', 'Study NCT02672358 in unknown country was Withdrawn during PHASE2 because Company Decision', 'Study NCT02140840 in United States was Withdrawn during PHASE2 because PI left institution', 'Study NCT02357732 in unknown country was Withdrawn during PHASE1 because PI decided not to proceed'}

>  <Indications>  (386) 
Trametinib is indicated for the treatment of unresectable or metastatic melanoma with BRAF V600E or V600K mutations, as detected by an FDA-approved test.

>  <Type>  (386) 
3

>  <targets_id>  (386) 
P15056|Q02750|P36507

>  <Inchi>  (386) 
InChI=1S/C26H23FIN5O4/c1-13-22-21(23(31(3)24(13)35)30-20-10-7-15(28)11-19(20)27)25(36)33(17-8-9-17)26(37)32(22)18-6-4-5-16(12-18)29-14(2)34/h4-7,10-12,17,30H,8-9H2,1-3H3,(H,29,34)

>  <stdInchikey>  (386) 
LIRYPHYGHXZJBZ-UHFFFAOYSA-N

>  <csid>  (386) 
9881833

>  <Links>  (386) 
|http://www.chemspider.com/Chemical-Structure.9881833.html|https://www.ebi.ac.uk/chembldb/compound/inspect/CHEMBL2103875|https://pubchem.ncbi.nlm.nih.gov/compound/11707110|https://go.drugbank.com/drugs/DB08911|https://www.rcsb.org/ligand/QOM|https://www.ebi.ac.uk/pdbe-srv/pdbechem/chemicalCompound/show/QOM|https://www.guidetopharmacology.org/GRAC/LigandDisplayForward?6495|https://zinc15.docking.org/substances/ZINC000043100709|https://precision.fda.gov/uniisearch/srs/unii/33E86K87QN|https://www.bindingdb.org/bind/chemsearch/marvin/MolStructure.jsp?monomerid=50531540

>  <LinkName>  (386) 
|ChemSpider|ChEMBL|PubChem|DrugBank|RCSB|PDBe|Guide to Pharmacology|ZINC|FDA SRS|BindingDB

>  <lig_pdb_ID>  (386) 
QOM

>  <pdb_IDs>  (386) 
7jur 7jux 7m0y 8bw9

>  <indicationDB>  (386) 


>  <uniprotId>  (386) 


>  <indicationG2P>  (386) 
None

>  <MW>  (386) 
615.1

>  <HBA>  (386) 
8

>  <HBD>  (386) 
2

>  <NRB>  (386) 
5

>  <TPSA>  (386) 
107.1

>  <LogP>  (386) 
3.9

>  <RoF>  (386) 
1

>  <Melting point>  (386) 
nan

>  <Targets>  (386) 
BRAF; MAP2K1; MAP2K2

>  <Kinase families>  (386) 
STE<br>TKL

>  <FDA_approved>  (386) 
Y

$$$$
Fostamatinib
     RDKit          2D

 40 43  0  0  0  0  0  0  0  0999 V2000
   -7.5685   -3.7323    0.0000 C   0  0  0  0  0  0  0  0  0  0  0  0
   -7.2302   -2.2710    0.0000 C   0  0  0  0  0  0  0  0  0  0  0  0
   -7.4121   -0.7821    0.0000 C   0  0  0  0  0  0  0  0  0  0  0  0
   -8.7924   -0.1951    0.0000 O   0  0  0  0  0  0  0  0  0  0  0  0
   -6.2135    0.1199    0.0000 N   0  0  0  0  0  0  0  0  0  0  0  0
   -4.8331   -0.4670    0.0000 C   0  0  0  0  0  0  0  0  0  0  0  0
   -4.6513   -1.9560    0.0000 C   0  0  0  0  0  0  0  0  0  0  0  0
   -3.2709   -2.5429    0.0000 C   0  0  0  0  0  0  0  0  0  0  0  0
   -2.0724   -1.6409    0.0000 C   0  0  0  0  0  0  0  0  0  0  0  0
   -2.2542   -0.1520    0.0000 C   0  0  0  0  0  0  0  0  0  0  0  0
   -3.6346    0.4350    0.0000 N   0  0  0  0  0  0  0  0  0  0  0  0
   -1.0557    0.7500    0.0000 N   0  0  0  0  0  0  0  0  0  0  0  0
    0.3247    0.1630    0.0000 C   0  0  0  0  0  0  0  0  0  0  0  0
    0.5066   -1.3259    0.0000 C   0  0  0  0  0  0  0  0  0  0  0  0
    1.8869   -1.9128    0.0000 C   0  0  0  0  0  0  0  0  0  0  0  0
    3.0855   -1.0108    0.0000 N   0  0  0  0  0  0  0  0  0  0  0  0
    2.9036    0.4781    0.0000 C   0  0  0  0  0  0  0  0  0  0  0  0
    1.5232    1.0650    0.0000 N   0  0  0  0  0  0  0  0  0  0  0  0
    4.1021    1.3801    0.0000 N   0  0  0  0  0  0  0  0  0  0  0  0
    5.4825    0.7931    0.0000 C   0  0  0  0  0  0  0  0  0  0  0  0
    5.6644   -0.6958    0.0000 C   0  0  0  0  0  0  0  0  0  0  0  0
    7.0448   -1.2828    0.0000 C   0  0  0  0  0  0  0  0  0  0  0  0
    8.2433   -0.3808    0.0000 C   0  0  0  0  0  0  0  0  0  0  0  0
    8.0614    1.1082    0.0000 C   0  0  0  0  0  0  0  0  0  0  0  0
    6.6810    1.6951    0.0000 C   0  0  0  0  0  0  0  0  0  0  0  0
    9.2599    2.0101    0.0000 O   0  0  0  0  0  0  0  0  0  0  0  0
    9.0780    3.4991    0.0000 C   0  0  0  0  0  0  0  0  0  0  0  0
    9.6237   -0.9677    0.0000 O   0  0  0  0  0  0  0  0  0  0  0  0
   10.8222   -0.0657    0.0000 C   0  0  0  0  0  0  0  0  0  0  0  0
    7.2266   -2.7717    0.0000 O   0  0  0  0  0  0  0  0  0  0  0  0
    6.0281   -3.6737    0.0000 C   0  0  0  0  0  0  0  0  0  0  0  0
   -0.6920   -2.2279    0.0000 F   0  0  0  0  0  0  0  0  0  0  0  0
   -5.8498   -2.8579    0.0000 O   0  0  0  0  0  0  0  0  0  0  0  0
   -6.3954    1.6088    0.0000 C   0  0  0  0  0  0  0  0  0  0  0  0
   -5.1969    2.5108    0.0000 O   0  0  0  0  0  0  0  0  0  0  0  0
   -5.3788    3.9998    0.0000 P   0  0  0  0  0  0  0  0  0  0  0  0
   -3.8899    4.1817    0.0000 O   0  0  0  0  0  0  0  0  0  0  0  0
   -6.8677    3.8179    0.0000 O   0  0  0  0  0  0  0  0  0  0  0  0
   -5.5607    5.4887    0.0000 O   0  0  0  0  0  0  0  0  0  0  0  0
   -8.7281   -2.1916    0.0000 C   0  0  0  0  0  0  0  0  0  0  0  0
  1  2  1  0
  2  3  1  0
  3  4  2  0
  3  5  1  0
  5  6  1  0
  6  7  2  0
  7  8  1  0
  8  9  2  0
  9 10  1  0
 10 11  2  0
 10 12  1  0
 12 13  1  0
 13 14  2  0
 14 15  1  0
 15 16  2  0
 16 17  1  0
 17 18  2  0
 17 19  1  0
 19 20  1  0
 20 21  2  0
 21 22  1  0
 22 23  2  0
 23 24  1  0
 24 25  2  0
 24 26  1  0
 26 27  1  0
 23 28  1  0
 28 29  1  0
 22 30  1  0
 30 31  1  0
 14 32  1  0
  7 33  1  0
  5 34  1  0
 34 35  1  0
 35 36  1  0
 36 37  2  0
 36 38  1  0
 36 39  1  0
  2 40  1  0
 33  2  1  0
 11  6  1  0
 18 13  1  0
 25 20  1  0
M  END
>  <BrandName>  (387) 
Tavalisse

>  <Applicants>  (387) 
Rigel Pharmaceuticals

>  <CHEMBL_ID>  (387) 
CHEMBL2103830

>  <Canonical_Smiles>  (387) 
CC1(C(=O)N(c2c(ccc(n2)Nc3c(cnc(n3)Nc4cc(c(c(c4)OC)OC)OC)F)O1)COP(=O)(O)O)C

>  <Chirality>  (387) 
Achiral Molecule

>  <First_Approval>  (387) 
2018

>  <Phase>  (387) 
4.0

>  <SC_Patent>  (387) 
US-7449458-B2

>  <Synonyms>  (387) 
FOSTAMATINIB | R-788 | R-788 FREE ACID | R-935788 | R-935788 FREE ACID | R788 FREE ACID | R935788 FREE ACID

>  <Withdrawn>  (387) 
{''}

>  <Indications>  (387) 
Indicated for the treatment of chronic immune thrombocytopenia (ITP) in adult patients who have had an insufficient response to a previous treatment

>  <Type>  (387) 
nan

>  <targets_id>  (387) 
P43405

>  <Inchi>  (387) 
InChI=1S/C23H26FN6O9P/c1-23(2)21(31)30(11-38-40(32,33)34)20-14(39-23)6-7-17(28-20)27-19-13(24)10-25-22(29-19)26-12-8-15(35-3)18(37-5)16(9-12)36-4/h6-10H,11H2,1-5H3,(H2,32,33,34)(H2,25,26,27,28,29)

>  <stdInchikey>  (387) 
GKDRMWXFWHEQQT-UHFFFAOYSA-N

>  <csid>  (387) 
9846198

>  <Links>  (387) 
|http://www.chemspider.com/Chemical-Structure.9846198.html|https://www.ebi.ac.uk/chembldb/compound/inspect/CHEMBL2103830|https://pubchem.ncbi.nlm.nih.gov/compound/11671467|https://go.drugbank.com/drugs/DB12010|https://www.rcsb.org/ligand/2RC|https://www.ebi.ac.uk/pdbe-srv/pdbechem/chemicalCompound/show/2RC|https://www.guidetopharmacology.org/GRAC/LigandDisplayForward?7796|https://zinc15.docking.org/substances/ZINC000043131420|https://precision.fda.gov/uniisearch/srs/unii/SQ8A3S5101|https://www.bindingdb.org/bind/chemsearch/marvin/MolStructure.jsp?monomerid=50431381

>  <LinkName>  (387) 
|ChemSpider|ChEMBL|PubChem|DrugBank|RCSB|PDBe|Guide to Pharmacology|ZINC|FDA SRS|BindingDB

>  <lig_pdb_ID>  (387) 
2RC

>  <pdb_IDs>  (387) 
4o75

>  <indicationDB>  (387) 


>  <uniprotId>  (387) 


>  <indicationG2P>  (387) 
None

>  <MW>  (387) 
580.1

>  <HBA>  (387) 
12

>  <HBD>  (387) 
4

>  <NRB>  (387) 
10

>  <TPSA>  (387) 
186.7

>  <LogP>  (387) 
3.1

>  <RoF>  (387) 
2

>  <Melting point>  (387) 
nan

>  <Targets>  (387) 
SYK

>  <Kinase families>  (387) 
Tyr

>  <FDA_approved>  (387) 
Y

$$$$
Fruquintinib
     RDKit          2D

 29 32  0  0  0  0  0  0  0  0999 V2000
    6.9609    2.4612    0.0000 C   0  0  0  0  0  0  0  0  0  0  0  0
    5.5887    1.8555    0.0000 C   0  0  0  0  0  0  0  0  0  0  0  0
    5.2721    0.3893    0.0000 C   0  0  0  0  0  0  0  0  0  0  0  0
    3.7798    0.2372    0.0000 C   0  0  0  0  0  0  0  0  0  0  0  0
    2.8943   -0.9735    0.0000 C   0  0  0  0  0  0  0  0  0  0  0  0
    1.4030   -0.8119    0.0000 C   0  0  0  0  0  0  0  0  0  0  0  0
    0.7973    0.5603    0.0000 C   0  0  0  0  0  0  0  0  0  0  0  0
    1.6828    1.7710    0.0000 C   0  0  0  0  0  0  0  0  0  0  0  0
    3.1741    1.6095    0.0000 C   0  0  0  0  0  0  0  0  0  0  0  0
    4.2920    2.6096    0.0000 O   0  0  0  0  0  0  0  0  0  0  0  0
   -0.6940    0.7219    0.0000 O   0  0  0  0  0  0  0  0  0  0  0  0
   -1.5795   -0.4889    0.0000 C   0  0  0  0  0  0  0  0  0  0  0  0
   -3.0708   -0.3273    0.0000 C   0  0  0  0  0  0  0  0  0  0  0  0
   -3.6765    1.0450    0.0000 C   0  0  0  0  0  0  0  0  0  0  0  0
   -5.1678    1.2065    0.0000 C   0  0  0  0  0  0  0  0  0  0  0  0
   -6.0534   -0.0042    0.0000 C   0  0  0  0  0  0  0  0  0  0  0  0
   -5.4476   -1.3765    0.0000 C   0  0  0  0  0  0  0  0  0  0  0  0
   -3.9564   -1.5380    0.0000 C   0  0  0  0  0  0  0  0  0  0  0  0
   -3.3506   -2.9103    0.0000 N   0  0  0  0  0  0  0  0  0  0  0  0
   -1.8593   -3.0718    0.0000 C   0  0  0  0  0  0  0  0  0  0  0  0
   -0.9738   -1.8611    0.0000 N   0  0  0  0  0  0  0  0  0  0  0  0
   -7.5446    0.1573    0.0000 O   0  0  0  0  0  0  0  0  0  0  0  0
   -8.4302   -1.0534    0.0000 C   0  0  0  0  0  0  0  0  0  0  0  0
   -5.7736    2.5788    0.0000 O   0  0  0  0  0  0  0  0  0  0  0  0
   -4.8880    3.7895    0.0000 C   0  0  0  0  0  0  0  0  0  0  0  0
    6.2722   -0.7287    0.0000 C   0  0  0  0  0  0  0  0  0  0  0  0
    7.7405   -0.4215    0.0000 O   0  0  0  0  0  0  0  0  0  0  0  0
    5.8042   -2.1538    0.0000 N   0  0  0  0  0  0  0  0  0  0  0  0
    6.8043   -3.2717    0.0000 C   0  0  0  0  0  0  0  0  0  0  0  0
  1  2  1  0
  2  3  2  0
  3  4  1  0
  4  5  2  0
  5  6  1  0
  6  7  2  0
  7  8  1  0
  8  9  2  0
  9 10  1  0
  7 11  1  0
 11 12  1  0
 12 13  1  0
 13 14  2  0
 14 15  1  0
 15 16  2  0
 16 17  1  0
 17 18  2  0
 18 19  1  0
 19 20  2  0
 20 21  1  0
 16 22  1  0
 22 23  1  0
 15 24  1  0
 24 25  1  0
  3 26  1  0
 26 27  2  0
 26 28  1  0
 28 29  1  0
 10  2  1  0
  9  4  1  0
 21 12  2  0
 18 13  1  0
M  END
>  <BrandName>  (388) 
Fruzaqla

>  <Applicants>  (388) 
Hutchison MediPharma

>  <CHEMBL_ID>  (388) 
CHEMBL4303214

>  <Canonical_Smiles>  (388) 
Cc1c(c2ccc(cc2o1)Oc3c4cc(c(cc4ncn3)OC)OC)C(=O)NC

>  <Chirality>  (388) 
Achiral Molecule

>  <First_Approval>  (388) 
2023

>  <Phase>  (388) 
4.0

>  <SC_Patent>  (388) 
nan

>  <Synonyms>  (388) 
FRUQUINTINIB | FRUZAQLA | HMPL-013 | HMPL013

>  <Withdrawn>  (388) 
{''}

>  <Indications>  (388) 
On November 2023, FDA approved Fruquintinib to treat refractory, metastatic colorectal cancer

>  <Type>  (388) 
nan

>  <targets_id>  (388) 
P17948|P35968|P35916

>  <Inchi>  (388) 
InChI=1S/C21H19N3O5/c1-11-19(20(25)22-2)13-6-5-12(7-16(13)28-11)29-21-14-8-17(26-3)18(27-4)9-15(14)23-10-24-21/h5-10H,1-4H3,(H,22,25)

>  <stdInchikey>  (388) 
BALLNEJQLSTPIO-UHFFFAOYSA-N

>  <csid>  (388) 
39625837

>  <Links>  (388) 
|http://www.chemspider.com/Chemical-Structure.39625837.html|https://www.ebi.ac.uk/chembldb/compound/inspect/CHEMBL4303214|https://pubchem.ncbi.nlm.nih.gov/compound/44480399|https://go.drugbank.com/drugs/DB11679|https://www.guidetopharmacology.org/GRAC/LigandDisplayForward?9428|https://zinc15.docking.org/substances/ZINC000114898570|https://precision.fda.gov/uniisearch/srs/unii/49DXG3M5ZW

>  <LinkName>  (388) 
|ChemSpider|ChEMBL|PubChem|DrugBank|Guide to Pharmacology|ZINC|FDA SRS

>  <lig_pdb_ID>  (388) 


>  <pdb_IDs>  (388) 


>  <indicationDB>  (388) 


>  <uniprotId>  (388) 


>  <indicationG2P>  (388) 
None

>  <MW>  (388) 
393.1

>  <HBA>  (388) 
7

>  <HBD>  (388) 
1

>  <NRB>  (388) 
5

>  <TPSA>  (388) 
95.7

>  <LogP>  (388) 
3.9

>  <RoF>  (388) 
0

>  <Melting point>  (388) 
nan

>  <Targets>  (388) 
FLT1; KDR; FLT4

>  <Kinase families>  (388) 
Tyr

>  <FDA_approved>  (388) 
Y

$$$$
Futibatinib
     RDKit          2D

 31 34  0  0  0  0  0  0  0  0999 V2000
   -6.1995    4.4880    0.0000 C   0  0  0  0  0  0  0  0  0  0  0  0
   -7.1069    3.2936    0.0000 O   0  0  0  0  0  0  0  0  0  0  0  0
   -6.5262    1.9105    0.0000 C   0  0  0  0  0  0  0  0  0  0  0  0
   -5.0381    1.7219    0.0000 C   0  0  0  0  0  0  0  0  0  0  0  0
   -4.4573    0.3389    0.0000 C   0  0  0  0  0  0  0  0  0  0  0  0
   -5.3647   -0.8555    0.0000 C   0  0  0  0  0  0  0  0  0  0  0  0
   -6.8528   -0.6669    0.0000 C   0  0  0  0  0  0  0  0  0  0  0  0
   -7.4335    0.7161    0.0000 C   0  0  0  0  0  0  0  0  0  0  0  0
   -7.7602   -1.8614    0.0000 O   0  0  0  0  0  0  0  0  0  0  0  0
   -9.2483   -1.6728    0.0000 C   0  0  0  0  0  0  0  0  0  0  0  0
   -2.9693    0.1503    0.0000 C   0  0  0  0  0  0  0  0  0  0  0  0
   -1.4812   -0.0383    0.0000 C   0  0  0  0  0  0  0  0  0  0  0  0
    0.0069   -0.2269    0.0000 C   0  0  0  0  0  0  0  0  0  0  0  0
    0.7290   -1.5417    0.0000 C   0  0  0  0  0  0  0  0  0  0  0  0
    0.2352   -2.9580    0.0000 C   0  0  0  0  0  0  0  0  0  0  0  0
    1.2148   -4.0939    0.0000 N   0  0  0  0  0  0  0  0  0  0  0  0
    2.6884   -3.8134    0.0000 C   0  0  0  0  0  0  0  0  0  0  0  0
    3.1823   -2.3971    0.0000 N   0  0  0  0  0  0  0  0  0  0  0  0
    2.2026   -1.2612    0.0000 C   0  0  0  0  0  0  0  0  0  0  0  0
    2.3912    0.2269    0.0000 N   0  0  0  0  0  0  0  0  0  0  0  0
    1.0342    0.8661    0.0000 N   0  0  0  0  0  0  0  0  0  0  0  0
    3.7059    0.9490    0.0000 C   0  0  0  0  0  0  0  0  0  0  0  0
    3.8945    2.4371    0.0000 C   0  0  0  0  0  0  0  0  0  0  0  0
    5.3681    2.7176    0.0000 C   0  0  0  0  0  0  0  0  0  0  0  0
    6.0902    1.4029    0.0000 N   0  0  0  0  0  0  0  0  0  0  0  0
    5.0629    0.3098    0.0000 C   0  0  0  0  0  0  0  0  0  0  0  0
    7.5783    1.2143    0.0000 C   0  0  0  0  0  0  0  0  0  0  0  0
    8.4857    2.4087    0.0000 O   0  0  0  0  0  0  0  0  0  0  0  0
    8.1590   -0.1688    0.0000 C   0  0  0  0  0  0  0  0  0  0  0  0
    9.6471   -0.3574    0.0000 C   0  0  0  0  0  0  0  0  0  0  0  0
   -1.2384   -3.2385    0.0000 N   0  0  0  0  0  0  0  0  0  0  0  0
  1  2  1  0
  2  3  1  0
  3  4  2  0
  4  5  1  0
  5  6  2  0
  6  7  1  0
  7  8  2  0
  7  9  1  0
  9 10  1  0
  5 11  1  0
 11 12  3  0
 12 13  1  0
 13 14  1  0
 14 15  2  0
 15 16  1  0
 16 17  2  0
 17 18  1  0
 18 19  2  0
 19 20  1  0
 20 21  1  0
 20 22  1  0
 22 23  1  0
 23 24  1  0
 24 25  1  0
 25 26  1  0
 25 27  1  0
 27 28  2  0
 27 29  1  0
 29 30  2  0
 15 31  1  0
  8  3  1  0
 21 13  2  0
 19 14  1  0
 26 22  1  0
M  END
>  <BrandName>  (389) 
Lytgobi

>  <Applicants>  (389) 
Taiho Pharmaceutical

>  <CHEMBL_ID>  (389) 
CHEMBL3701238

>  <Canonical_Smiles>  (389) 
COc1cc(cc(c1)OC)C#Cc2c3c(ncnc3n(n2)C4CCN(C4)C(=O)C=C)N

>  <Chirality>  (389) 
Single Stereoisomer

>  <First_Approval>  (389) 
2022

>  <Phase>  (389) 
4.0

>  <SC_Patent>  (389) 
US-9108973-B2

>  <Synonyms>  (389) 
|LYTGOBI|AS-120|TAS-120

>  <Withdrawn>  (389) 
{''}

>  <Indications>  (389) 
On September 2022, FDA approved futibatinib to treat intrahepatic cholangiocarcinoma harboring fibroblast growth factor receptor 2 (FGFR2) gene fusions or other rearrangements

>  <Type>  (389) 
nan

>  <targets_id>  (389) 
P04049

>  <Inchi>  (389) 
InChI=1S/C22H22N6O3/c1-4-19(29)27-8-7-15(12-27)28-22-20(21(23)24-13-25-22)18(26-28)6-5-14-9-16(30-2)11-17(10-14)31-3/h4,9-11,13,15H,1,7-8,12H2,2-3H3,(H2,23,24,25)/t15-/m0/s1

>  <stdInchikey>  (389) 
KEIPNCCJPRMIAX-UHFFFAOYSA-N

>  <csid>  (389) 
58877815

>  <Links>  (389) 
|http://www.chemspider.com/Chemical-Structure.58877815.html|https://www.ebi.ac.uk/chembldb/compound/inspect/CHEMBL3701237|https://pubchem.ncbi.nlm.nih.gov/compound/78137072|https://www.bindingdb.org/bind/chemsearch/marvin/MolStructure.jsp?monomerid=161388

>  <LinkName>  (389) 
|ChemSpider|ChEMBL|PubChem|BindingDB

>  <lig_pdb_ID>  (389) 


>  <pdb_IDs>  (389) 


>  <indicationDB>  (389) 


>  <uniprotId>  (389) 


>  <indicationG2P>  (389) 


>  <MW>  (389) 
418.2

>  <HBA>  (389) 
8

>  <HBD>  (389) 
1

>  <NRB>  (389) 
4

>  <TPSA>  (389) 
108.4

>  <LogP>  (389) 
1.8

>  <RoF>  (389) 
0

>  <Melting point>  (389) 
nan

>  <Targets>  (389) 
RAF1

>  <Kinase families>  (389) 
TKL

>  <FDA_approved>  (389) 
Y

$$$$
Erlotinib
     RDKit          2D

 29 31  0  0  0  0  0  0  0  0999 V2000
   -1.2256    7.2656    0.0000 C   0  0  0  0  0  0  0  0  0  0  0  0
   -0.8069    5.8253    0.0000 O   0  0  0  0  0  0  0  0  0  0  0  0
   -1.8450    4.7425    0.0000 C   0  0  0  0  0  0  0  0  0  0  0  0
   -1.4263    3.3021    0.0000 C   0  0  0  0  0  0  0  0  0  0  0  0
   -2.4644    2.2193    0.0000 O   0  0  0  0  0  0  0  0  0  0  0  0
   -2.0457    0.7789    0.0000 C   0  0  0  0  0  0  0  0  0  0  0  0
   -0.5890    0.4213    0.0000 C   0  0  0  0  0  0  0  0  0  0  0  0
   -0.1703   -1.0191    0.0000 C   0  0  0  0  0  0  0  0  0  0  0  0
   -1.2083   -2.1018    0.0000 C   0  0  0  0  0  0  0  0  0  0  0  0
   -2.6651   -1.7442    0.0000 C   0  0  0  0  0  0  0  0  0  0  0  0
   -3.0838   -0.3038    0.0000 C   0  0  0  0  0  0  0  0  0  0  0  0
   -4.5405    0.0538    0.0000 O   0  0  0  0  0  0  0  0  0  0  0  0
   -5.5786   -1.0290    0.0000 C   0  0  0  0  0  0  0  0  0  0  0  0
   -7.0353   -0.6714    0.0000 C   0  0  0  0  0  0  0  0  0  0  0  0
   -8.0734   -1.7542    0.0000 O   0  0  0  0  0  0  0  0  0  0  0  0
   -9.5302   -1.3966    0.0000 C   0  0  0  0  0  0  0  0  0  0  0  0
   -0.7897   -3.5422    0.0000 N   0  0  0  0  0  0  0  0  0  0  0  0
    0.6671   -3.8998    0.0000 C   0  0  0  0  0  0  0  0  0  0  0  0
    1.7052   -2.8171    0.0000 N   0  0  0  0  0  0  0  0  0  0  0  0
    1.2865   -1.3767    0.0000 C   0  0  0  0  0  0  0  0  0  0  0  0
    2.3245   -0.2939    0.0000 N   0  0  0  0  0  0  0  0  0  0  0  0
    3.7813   -0.6515    0.0000 C   0  0  0  0  0  0  0  0  0  0  0  0
    4.2000   -2.0919    0.0000 C   0  0  0  0  0  0  0  0  0  0  0  0
    5.6567   -2.4495    0.0000 C   0  0  0  0  0  0  0  0  0  0  0  0
    6.6948   -1.3667    0.0000 C   0  0  0  0  0  0  0  0  0  0  0  0
    6.2761    0.0737    0.0000 C   0  0  0  0  0  0  0  0  0  0  0  0
    4.8194    0.4313    0.0000 C   0  0  0  0  0  0  0  0  0  0  0  0
    7.3142    1.1565    0.0000 C   0  0  0  0  0  0  0  0  0  0  0  0
    8.3523    2.2392    0.0000 C   0  0  0  0  0  0  0  0  0  0  0  0
  1  2  1  0
  2  3  1  0
  3  4  1  0
  4  5  1  0
  5  6  1  0
  6  7  2  0
  7  8  1  0
  8  9  2  0
  9 10  1  0
 10 11  2  0
 11 12  1  0
 12 13  1  0
 13 14  1  0
 14 15  1  0
 15 16  1  0
  9 17  1  0
 17 18  2  0
 18 19  1  0
 19 20  2  0
 20 21  1  0
 21 22  1  0
 22 23  2  0
 23 24  1  0
 24 25  2  0
 25 26  1  0
 26 27  2  0
 26 28  1  0
 28 29  3  0
 11  6  1  0
 20  8  1  0
 27 22  1  0
M  END
>  <BrandName>  (390) 
Tarceva

>  <Applicants>  (390) 
Osi Pharmaceuticals

>  <CHEMBL_ID>  (390) 
CHEMBL553

>  <Canonical_Smiles>  (390) 
COCCOc1cc2c(cc1OCCOC)ncnc2Nc3cccc(c3)C#C

>  <Chirality>  (390) 
Achiral Molecule

>  <First_Approval>  (390) 
2004

>  <Phase>  (390) 
4.0

>  <SC_Patent>  (390) 
nan

>  <Synonyms>  (390) 
CP-358,774 | CP-358774 | CP-35877401 | ERLOTINIB | OSI-774 | R-1415 | RG-1415 | RO-508231 | TARCEVA

>  <Withdrawn>  (390) 
{'', 'Study NCT00428194 in United States was Withdrawn during PHASE1 because Withdrawn due to lack of accrual', 'Study NCT01465815 in United States was Withdrawn during PHASE1 because Drug manufacturer, Astellas Pharma, informed us that safety and efficacy of Erlotinib and OSI-906 in other oncology studies was determined to be unfavorable', 'Study NCT02355431 in United States was Withdrawn during PHASE2 because Study withdrawn before enrolling first patient', 'Study NCT01928160 in unknown country was Withdrawn during PHASE2 because study not accruing', 'Study NCT00728000 in United States was Withdrawn during PHASE2 because study withdrawn due to lack of enrollment', 'Study NCT01332279 in United States was Withdrawn during PHASE1 because Pharmaceutical co withdrew support Study was never activated and did not accrue any patients', 'Study NCT02034097 in unknown country was Withdrawn during PHASE2 because GSK has decided to terminate the Product Development of foretinib and conclude our Development Agreement with Exelixis', 'Study NCT03529084 in unknown country was Withdrawn during PHASE3 because Decision by Sponsor not to continue with the trial', 'Study NCT00385398 in unknown country was Withdrawn during PHASE2 because lack of funding and drug supply', 'Study NCT01600807 in United States was Withdrawn during PHASE1 because Study was pending major changes and was on hold, pending activation; administratively withdrawn; will be submitted as a new protocol if study is revised', 'Study NCT01006096 in United States was Withdrawn during PHASE2 because IND not obtained', 'Study NCT01728181 in unknown country was Withdrawn during PHASE1 because Stopped before approval due to ineffective drug', 'Study NCT00570375 in United States was Withdrawn during PHASE2 because PI left institution', 'Study NCT02795884 in unknown country was Withdrawn during PHASE3 because Because of reconsideration of using erlotinib(EGFR Tyrosine kinase inhibitor) as adjuvant aim', 'Study NCT01013506 in unknown country was Withdrawn during PHASE2 because Study was abandoned before opening to accrual Replaced by another study'}

>  <Indications>  (390) 
For the treatment of patients with locally advanced or metastatic non-small cell lung cancer after failure of at least one prior chemotherapy regimen. Also for use, in combination with gemcitabine, as the first-line treatment of patients with locally advanced, unresectable or metastatic pancreatic cancer.

>  <Type>  (390) 
1.5

>  <targets_id>  (390) 
P00533|O75469

>  <Inchi>  (390) 
InChI=1S/C22H23N3O4/c1-4-16-6-5-7-17(12-16)25-22-18-13-20(28-10-8-26-2)21(29-11-9-27-3)14-19(18)23-15-24-22/h1,5-7,12-15H,8-11H2,2-3H3,(H,23,24,25)

>  <stdInchikey>  (390) 
AAKJLRGGTJKAMG-UHFFFAOYSA-N

>  <csid>  (390) 
154044

>  <Links>  (390) 
|http://www.chemspider.com/Chemical-Structure.154044.html|https://www.ebi.ac.uk/chembldb/compound/inspect/CHEMBL553|https://pubchem.ncbi.nlm.nih.gov/compound/176870|https://go.drugbank.com/drugs/DB00530|https://www.rcsb.org/ligand/AQ4|https://www.ebi.ac.uk/pdbe-srv/pdbechem/chemicalCompound/show/AQ4|https://www.guidetopharmacology.org/GRAC/LigandDisplayForward?4920|https://zinc15.docking.org/substances/ZINC000001546066|https://precision.fda.gov/uniisearch/srs/unii/J4T82NDH7E|https://www.bindingdb.org/bind/chemsearch/marvin/MolStructure.jsp?monomerid=5446

>  <LinkName>  (390) 
|ChemSpider|ChEMBL|PubChem|DrugBank|RCSB|PDBe|Guide to Pharmacology|ZINC|FDA SRS|BindingDB

>  <lig_pdb_ID>  (390) 
AQ4

>  <pdb_IDs>  (390) 
1m17 4hjo 6dwn

>  <indicationDB>  (390) 


>  <uniprotId>  (390) 


>  <indicationG2P>  (390) 
None

>  <MW>  (390) 
393.2

>  <HBA>  (390) 
7

>  <HBD>  (390) 
1

>  <NRB>  (390) 
10

>  <TPSA>  (390) 
74.7

>  <LogP>  (390) 
3.4

>  <RoF>  (390) 
0

>  <Melting point>  (390) 
nan

>  <Targets>  (390) 
EGFR; NR1I2

>  <Kinase families>  (390) 
Tyr<br>(*)

>  <FDA_approved>  (390) 
Y

$$$$
Gilteritinib
     RDKit          2D

 40 44  0  0  0  0  0  0  0  0999 V2000
    6.9789   -3.4293    0.0000 C   0  0  0  0  0  0  0  0  0  0  0  0
    7.4421   -2.0026    0.0000 C   0  0  0  0  0  0  0  0  0  0  0  0
    6.4382   -0.8881    0.0000 C   0  0  0  0  0  0  0  0  0  0  0  0
    4.9711   -1.2002    0.0000 C   0  0  0  0  0  0  0  0  0  0  0  0
    3.9672   -0.0857    0.0000 N   0  0  0  0  0  0  0  0  0  0  0  0
    4.4304    1.3410    0.0000 C   0  0  0  0  0  0  0  0  0  0  0  0
    5.8976    1.6532    0.0000 C   0  0  0  0  0  0  0  0  0  0  0  0
    6.9015    0.5386    0.0000 N   0  0  0  0  0  0  0  0  0  0  0  0
    6.3609    3.0798    0.0000 C   0  0  0  0  0  0  0  0  0  0  0  0
    5.3570    4.1944    0.0000 O   0  0  0  0  0  0  0  0  0  0  0  0
    7.8280    3.3920    0.0000 N   0  0  0  0  0  0  0  0  0  0  0  0
    3.4265    2.4555    0.0000 N   0  0  0  0  0  0  0  0  0  0  0  0
    1.9594    2.1434    0.0000 C   0  0  0  0  0  0  0  0  0  0  0  0
    0.9555    3.2579    0.0000 C   0  0  0  0  0  0  0  0  0  0  0  0
   -0.5117    2.9458    0.0000 C   0  0  0  0  0  0  0  0  0  0  0  0
   -0.9750    1.5191    0.0000 C   0  0  0  0  0  0  0  0  0  0  0  0
    0.0289    0.4046    0.0000 C   0  0  0  0  0  0  0  0  0  0  0  0
    1.4961    0.7167    0.0000 C   0  0  0  0  0  0  0  0  0  0  0  0
   -0.4343   -1.0221    0.0000 O   0  0  0  0  0  0  0  0  0  0  0  0
   -1.9015   -1.3342    0.0000 C   0  0  0  0  0  0  0  0  0  0  0  0
   -2.4421    1.2070    0.0000 N   0  0  0  0  0  0  0  0  0  0  0  0
   -3.4460    2.3215    0.0000 C   0  0  0  0  0  0  0  0  0  0  0  0
   -4.9132    2.0094    0.0000 C   0  0  0  0  0  0  0  0  0  0  0  0
   -5.3765    0.5827    0.0000 C   0  0  0  0  0  0  0  0  0  0  0  0
   -4.3725   -0.5318    0.0000 C   0  0  0  0  0  0  0  0  0  0  0  0
   -2.9054   -0.2197    0.0000 C   0  0  0  0  0  0  0  0  0  0  0  0
   -6.8436    0.2706    0.0000 N   0  0  0  0  0  0  0  0  0  0  0  0
   -7.8475    1.3851    0.0000 C   0  0  0  0  0  0  0  0  0  0  0  0
   -9.3147    1.0730    0.0000 C   0  0  0  0  0  0  0  0  0  0  0  0
   -9.7779   -0.3537    0.0000 N   0  0  0  0  0  0  0  0  0  0  0  0
   -8.7740   -1.4682    0.0000 C   0  0  0  0  0  0  0  0  0  0  0  0
   -7.3069   -1.1561    0.0000 C   0  0  0  0  0  0  0  0  0  0  0  0
  -11.2451   -0.6659    0.0000 C   0  0  0  0  0  0  0  0  0  0  0  0
    4.5078   -2.6269    0.0000 N   0  0  0  0  0  0  0  0  0  0  0  0
    3.0406   -2.9390    0.0000 C   0  0  0  0  0  0  0  0  0  0  0  0
    2.0367   -1.8245    0.0000 C   0  0  0  0  0  0  0  0  0  0  0  0
    0.5696   -2.1366    0.0000 C   0  0  0  0  0  0  0  0  0  0  0  0
    0.1063   -3.5633    0.0000 O   0  0  0  0  0  0  0  0  0  0  0  0
    1.1102   -4.6778    0.0000 C   0  0  0  0  0  0  0  0  0  0  0  0
    2.5774   -4.3657    0.0000 C   0  0  0  0  0  0  0  0  0  0  0  0
  1  2  1  0
  2  3  1  0
  3  4  2  0
  4  5  1  0
  5  6  2  0
  6  7  1  0
  7  8  2  0
  7  9  1  0
  9 10  2  0
  9 11  1  0
  6 12  1  0
 12 13  1  0
 13 14  2  0
 14 15  1  0
 15 16  2  0
 16 17  1  0
 17 18  2  0
 17 19  1  0
 19 20  1  0
 16 21  1  0
 21 22  1  0
 22 23  1  0
 23 24  1  0
 24 25  1  0
 25 26  1  0
 24 27  1  0
 27 28  1  0
 28 29  1  0
 29 30  1  0
 30 31  1  0
 31 32  1  0
 30 33  1  0
  4 34  1  0
 34 35  1  0
 35 36  1  0
 36 37  1  0
 37 38  1  0
 38 39  1  0
 39 40  1  0
  8  3  1  0
 18 13  1  0
 26 21  1  0
 32 27  1  0
 40 35  1  0
M  END
>  <BrandName>  (391) 
Xospata

>  <Applicants>  (391) 
Astellas Pharma

>  <CHEMBL_ID>  (391) 
CHEMBL3301622

>  <Canonical_Smiles>  (391) 
CCc1c(nc(c(n1)C(=O)N)Nc2ccc(c(c2)OC)N3CCC(CC3)N4CCN(CC4)C)NC5CCOCC5

>  <Chirality>  (391) 
Achiral Molecule

>  <First_Approval>  (391) 
2018

>  <Phase>  (391) 
4.0

>  <SC_Patent>  (391) 
US-8969336-B2

>  <Synonyms>  (391) 
ASP-2215 | ASP2215 | GILTERITINIB

>  <Withdrawn>  (391) 
{'', 'Study NCT04655391 in United States was Withdrawn during PHASE1 because Drug availability', 'Study NCT05279859 in United States was Withdrawn during PHASE1 because Sponsor decision', 'Study NCT05330377 in United States was Withdrawn during PHASE1 because Sponsor withdrew funding'}

>  <Indications>  (391) 
On november 28, 2018, the FDA approved gilteritinib to treat patients who have relapsed or refractory acute myeloid leukemia (AML)

>  <Type>  (391) 
nan

>  <targets_id>  (391) 
P36888|P30530|Q9UM73

>  <Inchi>  (391) 
InChI=1S/C29H44N8O3/c1-4-23-28(31-20-9-17-40-18-10-20)34-29(26(33-23)27(30)38)32-21-5-6-24(25(19-21)39-3)37-11-7-22(8-12-37)36-15-13-35(2)14-16-36/h5-6,19-20,22H,4,7-18H2,1-3H3,(H2,30,38)(H2,31,32,34)

>  <stdInchikey>  (391) 
GYQYAJJFPNQOOW-UHFFFAOYSA-N

>  <csid>  (391) 
32055842

>  <Links>  (391) 
|http://www.chemspider.com/Chemical-Structure.32055842.html|https://www.ebi.ac.uk/chembldb/compound/inspect/CHEMBL3301622|https://pubchem.ncbi.nlm.nih.gov/compound/49803313|https://go.drugbank.com/drugs/DB12141|https://www.rcsb.org/ligand/C6F|https://www.ebi.ac.uk/pdbe-srv/pdbechem/chemicalCompound/show/C6F|https://www.guidetopharmacology.org/GRAC/LigandDisplayForward?8708|https://zinc15.docking.org/substances/ZINC000113476229|https://precision.fda.gov/uniisearch/srs/unii/66D92MGC8M|https://www.bindingdb.org/bind/chemsearch/marvin/MolStructure.jsp?monomerid=144315

>  <LinkName>  (391) 
|ChemSpider|ChEMBL|PubChem|DrugBank|RCSB|PDBe|Guide to Pharmacology|ZINC|FDA SRS|BindingDB

>  <lig_pdb_ID>  (391) 
C6F

>  <pdb_IDs>  (391) 
6jqr 7ab1

>  <indicationDB>  (391) 


>  <uniprotId>  (391) 


>  <indicationG2P>  (391) 
None

>  <MW>  (391) 
552.4

>  <HBA>  (391) 
10

>  <HBD>  (391) 
3

>  <NRB>  (391) 
9

>  <TPSA>  (391) 
121.1

>  <LogP>  (391) 
2.7

>  <RoF>  (391) 
1

>  <Melting point>  (391) 
nan

>  <Targets>  (391) 
FLT3; AXL; ALK

>  <Kinase families>  (391) 
Tyr

>  <FDA_approved>  (391) 
Y

$$$$
Ibrutinib
     RDKit          2D

 33 37  0  0  0  0  0  0  0  0999 V2000
    6.5906    5.7184    0.0000 C   0  0  0  0  0  0  0  0  0  0  0  0
    6.5339    4.2194    0.0000 C   0  0  0  0  0  0  0  0  0  0  0  0
    5.2074    3.5191    0.0000 C   0  0  0  0  0  0  0  0  0  0  0  0
    3.9376    4.3176    0.0000 O   0  0  0  0  0  0  0  0  0  0  0  0
    5.1507    2.0201    0.0000 N   0  0  0  0  0  0  0  0  0  0  0  0
    6.4205    1.2216    0.0000 C   0  0  0  0  0  0  0  0  0  0  0  0
    6.3638   -0.2773    0.0000 C   0  0  0  0  0  0  0  0  0  0  0  0
    5.0373   -0.9777    0.0000 C   0  0  0  0  0  0  0  0  0  0  0  0
    3.7676   -0.1792    0.0000 C   0  0  0  0  0  0  0  0  0  0  0  0
    3.8243    1.3198    0.0000 C   0  0  0  0  0  0  0  0  0  0  0  0
    2.4411   -0.8795    0.0000 N   0  0  0  0  0  0  0  0  0  0  0  0
    2.2280   -2.3643    0.0000 C   0  0  0  0  0  0  0  0  0  0  0  0
    0.7501   -2.6205    0.0000 C   0  0  0  0  0  0  0  0  0  0  0  0
    0.0497   -1.2940    0.0000 C   0  0  0  0  0  0  0  0  0  0  0  0
    1.0948   -0.2181    0.0000 N   0  0  0  0  0  0  0  0  0  0  0  0
   -1.4351   -1.0810    0.0000 C   0  0  0  0  0  0  0  0  0  0  0  0
   -1.9930    0.3114    0.0000 C   0  0  0  0  0  0  0  0  0  0  0  0
   -3.4777    0.5245    0.0000 C   0  0  0  0  0  0  0  0  0  0  0  0
   -4.4047   -0.6549    0.0000 C   0  0  0  0  0  0  0  0  0  0  0  0
   -3.8468   -2.0473    0.0000 C   0  0  0  0  0  0  0  0  0  0  0  0
   -2.3620   -2.2603    0.0000 C   0  0  0  0  0  0  0  0  0  0  0  0
   -5.8894   -0.4418    0.0000 O   0  0  0  0  0  0  0  0  0  0  0  0
   -6.4473    0.9506    0.0000 C   0  0  0  0  0  0  0  0  0  0  0  0
   -5.5204    2.1299    0.0000 C   0  0  0  0  0  0  0  0  0  0  0  0
   -6.0783    3.5223    0.0000 C   0  0  0  0  0  0  0  0  0  0  0  0
   -7.5631    3.7354    0.0000 C   0  0  0  0  0  0  0  0  0  0  0  0
   -8.4900    2.5561    0.0000 C   0  0  0  0  0  0  0  0  0  0  0  0
   -7.9321    1.1637    0.0000 C   0  0  0  0  0  0  0  0  0  0  0  0
    0.2330   -4.0285    0.0000 C   0  0  0  0  0  0  0  0  0  0  0  0
    1.1938   -5.1804    0.0000 N   0  0  0  0  0  0  0  0  0  0  0  0
    2.6718   -4.9242    0.0000 C   0  0  0  0  0  0  0  0  0  0  0  0
    3.1889   -3.5162    0.0000 N   0  0  0  0  0  0  0  0  0  0  0  0
   -1.2450   -4.2847    0.0000 N   0  0  0  0  0  0  0  0  0  0  0  0
  1  2  2  0
  2  3  1  0
  3  4  2  0
  3  5  1  0
  5  6  1  0
  6  7  1  0
  7  8  1  0
  8  9  1  0
  9 10  1  0
  9 11  1  1
 11 12  1  0
 12 13  2  0
 13 14  1  0
 14 15  2  0
 14 16  1  0
 16 17  2  0
 17 18  1  0
 18 19  2  0
 19 20  1  0
 20 21  2  0
 19 22  1  0
 22 23  1  0
 23 24  2  0
 24 25  1  0
 25 26  2  0
 26 27  1  0
 27 28  2  0
 13 29  1  0
 29 30  2  0
 30 31  1  0
 31 32  2  0
 29 33  1  0
 10  5  1  0
 15 11  1  0
 32 12  1  0
 21 16  1  0
 28 23  1  0
M  END
>  <BrandName>  (392) 
Imbruvica

>  <Applicants>  (392) 
Pharmacyclics

>  <CHEMBL_ID>  (392) 
CHEMBL1873475

>  <Canonical_Smiles>  (392) 
C=CC(=O)N1CCC[C@H](C1)n2c3c(c(n2)c4ccc(cc4)Oc5ccccc5)c(ncn3)N

>  <Chirality>  (392) 
Single Stereoisomer

>  <First_Approval>  (392) 
2013

>  <Phase>  (392) 
4.0

>  <SC_Patent>  (392) 
US-7514444-B2

>  <Synonyms>  (392) 
CRA-032765 | IBRUTINIB | IMBRUVICA | PC-32765 | PCI 32765 | PCI-32765 | PCI-32765-00

>  <Withdrawn>  (392) 
{'', 'Study NCT02815059 in United States was Withdrawn during PHASE1 because Termination of Investigator Initiated Studies using Ibrutinib', 'Study NCT02611908 in unknown country was Withdrawn during PHASE1 because No participants enrolled', 'Study NCT03130348 in unknown country was Withdrawn during PHASE2 because Study was dropped at site before participation', 'Study NCT03943342 in unknown country was Withdrawn during PHASE2 because Study not feasible', 'Study NCT04043845 in unknown country was Withdrawn during PHASE1 because Business development reasons', 'Study NCT04685915 in unknown country was Withdrawn during PHASE2 because Bayer is no longer funding due to lack of accrual', 'Study NCT04781855 in unknown country was Withdrawn during PHASE1 because 0% Participants', 'Study NCT04665115 in United States was Withdrawn during PHASE2 because Permanently closed 11/19/201 The widespread availability of COVID vaccination, the projected decline in infection rates, and the increasing use of non-ibrutinib containing BTKi therapy, we have not been able to get support for this study', 'Study NCT02914327 in United States was Withdrawn during PHASE1 because Lack of enrollment', "Study NCT05431179 in unknown country was Withdrawn during PHASE3 because Due to a strategic reprioritization based on the rapidly changing clinical and commercial landscape for Bruton's tyrosine kinase inhibitors (BTK inhibitors)", 'Study NCT02677948 in United States was Withdrawn during PHASE1 because FDA has placed all trials involving Pacritinib on Full Clinical Hold', 'Study NCT03232307 in unknown country was Withdrawn during PHASE2 because Sponsor does not wish to proceed', 'Study NCT03617484 in United States was Withdrawn during PHASE2 because Enrollment and/or interactions/interventions temporarily paused due to COVID-19 and expected to resume in the future This is not a suspension of IRB approval', 'Study NCT02780830 in unknown country was Withdrawn during PHASE1 because Study D2276C00001 was not started No patients were enrolled The sponsor decided to pursue an alternate design', 'Study NCT02662296 in United States was Withdrawn during PHASE2 because Low enrollment'}

>  <Indications>  (392) 
Ibrutinib was approved by the FDA for the treatment of mantle cell lymphoma, and later in February 2014 for the treatment of chronic lymphocytic leukemia

>  <Type>  (392) 
1.5

>  <targets_id>  (392) 
Q06187

>  <Inchi>  (392) 
InChI=1S/C25H24N6O2/c1-2-21(32)30-14-6-7-18(15-30)31-25-22(24(26)27-16-28-25)23(29-31)17-10-12-20(13-11-17)33-19-8-4-3-5-9-19/h2-5,8-13,16,18H,1,6-7,14-15H2,(H2,26,27,28)/t18-/m1/s1

>  <stdInchikey>  (392) 
XYFPWWZEPKGCCK-GOSISDBHSA-N

>  <csid>  (392) 
26637187

>  <Links>  (392) 
|http://www.chemspider.com/Chemical-Structure.26637187.html|https://www.ebi.ac.uk/chembldb/compound/inspect/CHEMBL1873475|https://pubchem.ncbi.nlm.nih.gov/compound/24821094|https://go.drugbank.com/drugs/DB09053|https://www.rcsb.org/ligand/1E8|https://www.ebi.ac.uk/pdbe-srv/pdbechem/chemicalCompound/show/1E8|https://www.guidetopharmacology.org/GRAC/LigandDisplayForward?6912|https://zinc15.docking.org/substances/ZINC000035328014|https://precision.fda.gov/uniisearch/srs/unii/1X70OSD4VX|https://www.bindingdb.org/bind/chemsearch/marvin/MolStructure.jsp?monomerid=50357312

>  <LinkName>  (392) 
|ChemSpider|ChEMBL|PubChem|DrugBank|RCSB|PDBe|Guide to Pharmacology|ZINC|FDA SRS|BindingDB

>  <lig_pdb_ID>  (392) 
1E8

>  <pdb_IDs>  (392) 
4ifg 4rz7 5p9i 5yu9 6l8l 6yg2 6yz4

>  <indicationDB>  (392) 


>  <uniprotId>  (392) 


>  <indicationG2P>  (392) 
None

>  <MW>  (392) 
440.2

>  <HBA>  (392) 
7

>  <HBD>  (392) 
1

>  <NRB>  (392) 
5

>  <TPSA>  (392) 
99.2

>  <LogP>  (392) 
4.2

>  <RoF>  (392) 
0

>  <Melting point>  (392) 
149-158C

>  <Targets>  (392) 
BTK

>  <Kinase families>  (392) 
Tyr

>  <FDA_approved>  (392) 
Y

$$$$
Upadacitinib
     RDKit          2D

 27 30  0  0  0  0  0  0  0  0999 V2000
    0.6514    3.0309    0.0000 C   0  0  0  0  0  0  0  0  0  0  0  0
    1.1685    1.6228    0.0000 C   0  0  0  0  0  0  0  0  0  0  0  0
    0.2077    0.4710    0.0000 C   0  0  0  0  0  0  0  0  0  0  0  0
   -1.2889    0.5712    0.0000 C   0  0  0  0  0  0  0  0  0  0  0  0
   -1.8468   -0.8212    0.0000 N   0  0  0  0  0  0  0  0  0  0  0  0
   -0.6949   -1.7820    0.0000 C   0  0  0  0  0  0  0  0  0  0  0  0
    0.5748   -0.9834    0.0000 C   0  0  0  0  0  0  0  0  0  0  0  0
    1.9673   -1.5413    0.0000 C   0  0  0  0  0  0  0  0  0  0  0  0
    2.3344   -2.9957    0.0000 C   0  0  0  0  0  0  0  0  0  0  0  0
    3.8310   -3.0959    0.0000 N   0  0  0  0  0  0  0  0  0  0  0  0
    4.3889   -1.7035    0.0000 C   0  0  0  0  0  0  0  0  0  0  0  0
    3.2370   -0.7427    0.0000 N   0  0  0  0  0  0  0  0  0  0  0  0
    3.4932    0.7353    0.0000 C   0  0  0  0  0  0  0  0  0  0  0  0
    2.5662    1.9146    0.0000 C   0  0  0  0  0  0  0  0  0  0  0  0
    3.4014    3.1606    0.0000 C   0  0  0  0  0  0  0  0  0  0  0  0
    4.8445    2.7513    0.0000 N   0  0  0  0  0  0  0  0  0  0  0  0
    4.9012    1.2524    0.0000 C   0  0  0  0  0  0  0  0  0  0  0  0
    6.0531    0.2916    0.0000 N   0  0  0  0  0  0  0  0  0  0  0  0
    5.7969   -1.1864    0.0000 C   0  0  0  0  0  0  0  0  0  0  0  0
   -3.3012   -1.1883    0.0000 C   0  0  0  0  0  0  0  0  0  0  0  0
   -3.7104   -2.6314    0.0000 O   0  0  0  0  0  0  0  0  0  0  0  0
   -4.3463   -0.1123    0.0000 N   0  0  0  0  0  0  0  0  0  0  0  0
   -5.8007   -0.4795    0.0000 C   0  0  0  0  0  0  0  0  0  0  0  0
   -6.8458    0.5965    0.0000 C   0  0  0  0  0  0  0  0  0  0  0  0
   -7.8909    1.6725    0.0000 F   0  0  0  0  0  0  0  0  0  0  0  0
   -7.9218   -0.4486    0.0000 F   0  0  0  0  0  0  0  0  0  0  0  0
   -5.7698    1.6416    0.0000 F   0  0  0  0  0  0  0  0  0  0  0  0
  1  2  1  0
  3  2  1  1
  3  4  1  0
  4  5  1  0
  5  6  1  0
  6  7  1  0
  7  8  1  1
  8  9  2  0
  9 10  1  0
 10 11  2  0
 11 12  1  0
 12 13  1  0
 13 14  1  0
 14 15  2  0
 15 16  1  0
 16 17  1  0
 17 18  1  0
 18 19  2  0
  5 20  1  0
 20 21  2  0
 20 22  1  0
 22 23  1  0
 23 24  1  0
 24 25  1  0
 24 26  1  0
 24 27  1  0
  7  3  1  0
 12  8  1  0
 19 11  1  0
 17 13  2  0
M  END
>  <BrandName>  (393) 
Rinvoq

>  <Applicants>  (393) 
Abbvie

>  <CHEMBL_ID>  (393) 
CHEMBL3622821

>  <Canonical_Smiles>  (393) 
CC[C@@H]1CN(C[C@@H]1c2cnc3n2c4cc[nH]c4nc3)C(=O)NCC(F)(F)F

>  <Chirality>  (393) 
Single Stereoisomer

>  <First_Approval>  (393) 
2019

>  <Phase>  (393) 
4.0

>  <SC_Patent>  (393) 
US-8962629-B2

>  <Synonyms>  (393) 
ABT-494 | UPADACITINIB | UPADACITINIB ANHYDROUS

>  <Withdrawn>  (393) 
{'', 'Study NCT06390722 in unknown country was Withdrawn during PHASE3 because strategic decision', 'Study NCT05379322 in United Arab Emirates was Withdrawn during PHASE3 because Decision of the local healthcare authority', 'Study NCT04666675 in unknown country was Withdrawn during PHASE3 because Strategic considerations'}

>  <Indications>  (393) 
On august 2019, FDA approved fedratinib to treat adults with moderately to severely active rheumatoid arthritis

>  <Type>  (393) 
nan

>  <targets_id>  (393) 
P23458

>  <Inchi>  (393) 
InChI=1S/C17H19F3N6O/c1-2-10-7-25(16(27)24-9-17(18,19)20)8-11(10)13-5-22-14-6-23-15-12(26(13)14)3-4-21-15/h3-6,10-11,21H,2,7-9H2,1H3,(H,24,27)/t10-,11+/m1/s1

>  <stdInchikey>  (393) 
WYQFJHHDOKWSHR-MNOVXSKESA-N

>  <csid>  (393) 
44210449

>  <Links>  (393) 
|http://www.chemspider.com/Chemical-Structure.44210449.html|https://www.ebi.ac.uk/chembldb/compound/inspect/CHEMBL3622821|https://pubchem.ncbi.nlm.nih.gov/compound/58557659|https://go.drugbank.com/drugs/DB15091|https://www.guidetopharmacology.org/GRAC/LigandDisplayForward?9246|https://precision.fda.gov/uniisearch/srs/unii/4RA0KN46E0|https://www.bindingdb.org/bind/chemsearch/marvin/MolStructure.jsp?monomerid=50503287

>  <LinkName>  (393) 
|ChemSpider|ChEMBL|PubChem|DrugBank|Guide to Pharmacology|FDA SRS|BindingDB

>  <lig_pdb_ID>  (393) 


>  <pdb_IDs>  (393) 


>  <indicationDB>  (393) 


>  <uniprotId>  (393) 


>  <indicationG2P>  (393) 
None

>  <MW>  (393) 
380.2

>  <HBA>  (393) 
4

>  <HBD>  (393) 
2

>  <NRB>  (393) 
3

>  <TPSA>  (393) 
78.3

>  <LogP>  (393) 
2.9

>  <RoF>  (393) 
0

>  <Melting point>  (393) 
16-19

>  <Targets>  (393) 
JAK1

>  <Kinase families>  (393) 
Tyr

>  <FDA_approved>  (393) 
Y

$$$$
Vandetanib
     RDKit          2D

 30 33  0  0  0  0  0  0  0  0999 V2000
   10.1222    0.1160    0.0000 C   0  0  0  0  0  0  0  0  0  0  0  0
    8.6352   -0.0807    0.0000 N   0  0  0  0  0  0  0  0  0  0  0  0
    8.0620   -1.4669    0.0000 C   0  0  0  0  0  0  0  0  0  0  0  0
    6.5750   -1.6636    0.0000 C   0  0  0  0  0  0  0  0  0  0  0  0
    5.6611   -0.4741    0.0000 C   0  0  0  0  0  0  0  0  0  0  0  0
    6.2342    0.9121    0.0000 C   0  0  0  0  0  0  0  0  0  0  0  0
    7.7213    1.1088    0.0000 C   0  0  0  0  0  0  0  0  0  0  0  0
    4.1740   -0.6708    0.0000 C   0  0  0  0  0  0  0  0  0  0  0  0
    3.2601    0.5186    0.0000 O   0  0  0  0  0  0  0  0  0  0  0  0
    1.7731    0.3219    0.0000 C   0  0  0  0  0  0  0  0  0  0  0  0
    1.1999   -1.0643    0.0000 C   0  0  0  0  0  0  0  0  0  0  0  0
   -0.2871   -1.2610    0.0000 C   0  0  0  0  0  0  0  0  0  0  0  0
   -1.2010   -0.0715    0.0000 C   0  0  0  0  0  0  0  0  0  0  0  0
   -0.6278    1.3147    0.0000 C   0  0  0  0  0  0  0  0  0  0  0  0
    0.8592    1.5114    0.0000 C   0  0  0  0  0  0  0  0  0  0  0  0
    1.4324    2.8976    0.0000 O   0  0  0  0  0  0  0  0  0  0  0  0
    2.9194    3.0943    0.0000 C   0  0  0  0  0  0  0  0  0  0  0  0
   -2.6880   -0.2682    0.0000 C   0  0  0  0  0  0  0  0  0  0  0  0
   -3.2612   -1.6544    0.0000 N   0  0  0  0  0  0  0  0  0  0  0  0
   -2.3473   -2.8439    0.0000 C   0  0  0  0  0  0  0  0  0  0  0  0
   -0.8603   -2.6472    0.0000 N   0  0  0  0  0  0  0  0  0  0  0  0
   -3.6019    0.9212    0.0000 N   0  0  0  0  0  0  0  0  0  0  0  0
   -5.0890    0.7245    0.0000 C   0  0  0  0  0  0  0  0  0  0  0  0
   -6.0029    1.9140    0.0000 C   0  0  0  0  0  0  0  0  0  0  0  0
   -7.4899    1.7172    0.0000 C   0  0  0  0  0  0  0  0  0  0  0  0
   -8.0631    0.3311    0.0000 C   0  0  0  0  0  0  0  0  0  0  0  0
   -7.1492   -0.8584    0.0000 C   0  0  0  0  0  0  0  0  0  0  0  0
   -5.6621   -0.6617    0.0000 C   0  0  0  0  0  0  0  0  0  0  0  0
   -4.7482   -1.8511    0.0000 F   0  0  0  0  0  0  0  0  0  0  0  0
   -9.5501    0.1344    0.0000 Br  0  0  0  0  0  0  0  0  0  0  0  0
  1  2  1  0
  2  3  1  0
  3  4  1  0
  4  5  1  0
  5  6  1  0
  6  7  1  0
  5  8  1  0
  8  9  1  0
  9 10  1  0
 10 11  2  0
 11 12  1  0
 12 13  2  0
 13 14  1  0
 14 15  2  0
 15 16  1  0
 16 17  1  0
 13 18  1  0
 18 19  2  0
 19 20  1  0
 20 21  2  0
 18 22  1  0
 22 23  1  0
 23 24  2  0
 24 25  1  0
 25 26  2  0
 26 27  1  0
 27 28  2  0
 28 29  1  0
 26 30  1  0
  7  2  1  0
 15 10  1  0
 21 12  1  0
 28 23  1  0
M  END
>  <BrandName>  (394) 
Caprelsa;Zactima

>  <Applicants>  (394) 
Ipr Pharmaceuticals

>  <CHEMBL_ID>  (394) 
CHEMBL24828

>  <Canonical_Smiles>  (394) 
CN1CCC(CC1)COc2cc3c(cc2OC)c(ncn3)Nc4ccc(cc4F)Br

>  <Chirality>  (394) 
Achiral Molecule

>  <First_Approval>  (394) 
2011

>  <Phase>  (394) 
4.0

>  <SC_Patent>  (394) 
US-8067427-B2

>  <Synonyms>  (394) 
CAPRELSA | GNF-PF-2188 | NSC-744325 | NSC-760766 | VANDETANIB | ZACTIMA | ZD-64 | ZD-6474 | ZD6474

>  <Withdrawn>  (394) 
{''}

>  <Indications>  (394) 
Vandetanib is currently approved as an alternative to local therapies for both unresectable and disseminated disease. Because Vandetanib can prolong the Q-T interval, it is contraindicated for use in patients with serious cardiac complications such as congenital long QT syndrome and uncompensated heart failure.

>  <Type>  (394) 
1.5

>  <targets_id>  (394) 
P15692|P00533|Q13882|Q02763|P07949

>  <Inchi>  (394) 
InChI=1S/C22H24BrFN4O2/c1-28-7-5-14(6-8-28)12-30-21-11-19-16(10-20(21)29-2)22(26-13-25-19)27-18-4-3-15(23)9-17(18)24/h3-4,9-11,13-14H,5-8,12H2,1-2H3,(H,25,26,27)

>  <stdInchikey>  (394) 
UHTHHESEBZOYNR-UHFFFAOYSA-N

>  <csid>  (394) 
2338979

>  <Links>  (394) 
|http://www.chemspider.com/Chemical-Structure.2338979.html|https://www.ebi.ac.uk/chembldb/compound/inspect/CHEMBL24828|https://pubchem.ncbi.nlm.nih.gov/compound/3081361|https://go.drugbank.com/drugs/DB05294|https://www.rcsb.org/ligand/ZD6|https://www.ebi.ac.uk/pdbe-srv/pdbechem/chemicalCompound/show/ZD6|https://www.guidetopharmacology.org/GRAC/LigandDisplayForward?5717|https://zinc15.docking.org/substances/ZINC000053683345|https://precision.fda.gov/uniisearch/srs/unii/YO460OQ37K|https://www.bindingdb.org/bind/chemsearch/marvin/MolStructure.jsp?monomerid=21

>  <LinkName>  (394) 
|ChemSpider|ChEMBL|PubChem|DrugBank|RCSB|PDBe|Guide to Pharmacology|ZINC|FDA SRS|BindingDB

>  <lig_pdb_ID>  (394) 
ZD6

>  <pdb_IDs>  (394) 
2ivu

>  <indicationDB>  (394) 


>  <uniprotId>  (394) 


>  <indicationG2P>  (394) 
None

>  <MW>  (394) 
474.1

>  <HBA>  (394) 
6

>  <HBD>  (394) 
1

>  <NRB>  (394) 
6

>  <TPSA>  (394) 
59.5

>  <LogP>  (394) 
5.0

>  <RoF>  (394) 
1

>  <Melting point>  (394) 
nan

>  <Targets>  (394) 
VEGFA; EGFR; PTK6; TEK; RET

>  <Kinase families>  (394) 
Tyr<br>(*)

>  <FDA_approved>  (394) 
Y

$$$$
Selumetinib
     RDKit          2D

 27 29  0  0  0  0  0  0  0  0999 V2000
    5.7549   -2.6046    0.0000 C   0  0  0  0  0  0  0  0  0  0  0  0
    5.0068   -1.3044    0.0000 N   0  0  0  0  0  0  0  0  0  0  0  0
    5.6189    0.0650    0.0000 C   0  0  0  0  0  0  0  0  0  0  0  0
    4.5056    1.0703    0.0000 N   0  0  0  0  0  0  0  0  0  0  0  0
    3.2055    0.3222    0.0000 C   0  0  0  0  0  0  0  0  0  0  0  0
    3.5152   -1.1455    0.0000 C   0  0  0  0  0  0  0  0  0  0  0  0
    2.3991   -2.1476    0.0000 C   0  0  0  0  0  0  0  0  0  0  0  0
    0.9731   -1.6820    0.0000 C   0  0  0  0  0  0  0  0  0  0  0  0
    0.6634   -0.2143    0.0000 C   0  0  0  0  0  0  0  0  0  0  0  0
    1.7796    0.7878    0.0000 C   0  0  0  0  0  0  0  0  0  0  0  0
    1.4698    2.2555    0.0000 F   0  0  0  0  0  0  0  0  0  0  0  0
   -0.7625    0.2513    0.0000 N   0  0  0  0  0  0  0  0  0  0  0  0
   -1.0722    1.7190    0.0000 C   0  0  0  0  0  0  0  0  0  0  0  0
    0.0439    2.7211    0.0000 C   0  0  0  0  0  0  0  0  0  0  0  0
   -0.2658    4.1887    0.0000 C   0  0  0  0  0  0  0  0  0  0  0  0
   -1.6917    4.6543    0.0000 C   0  0  0  0  0  0  0  0  0  0  0  0
   -2.8079    3.6522    0.0000 C   0  0  0  0  0  0  0  0  0  0  0  0
   -2.4982    2.1846    0.0000 C   0  0  0  0  0  0  0  0  0  0  0  0
   -3.6143    1.1825    0.0000 Cl  0  0  0  0  0  0  0  0  0  0  0  0
   -2.0015    6.1220    0.0000 Br  0  0  0  0  0  0  0  0  0  0  0  0
   -0.1430   -2.6840    0.0000 C   0  0  0  0  0  0  0  0  0  0  0  0
    0.1667   -4.1517    0.0000 O   0  0  0  0  0  0  0  0  0  0  0  0
   -1.5689   -2.2184    0.0000 N   0  0  0  0  0  0  0  0  0  0  0  0
   -2.6851   -3.2205    0.0000 O   0  0  0  0  0  0  0  0  0  0  0  0
   -4.1110   -2.7549    0.0000 C   0  0  0  0  0  0  0  0  0  0  0  0
   -5.2272   -3.7570    0.0000 C   0  0  0  0  0  0  0  0  0  0  0  0
   -6.6531   -3.2914    0.0000 O   0  0  0  0  0  0  0  0  0  0  0  0
  1  2  1  0
  2  3  1  0
  3  4  2  0
  4  5  1  0
  5  6  2  0
  6  7  1  0
  7  8  2  0
  8  9  1  0
  9 10  2  0
 10 11  1  0
  9 12  1  0
 12 13  1  0
 13 14  2  0
 14 15  1  0
 15 16  2  0
 16 17  1  0
 17 18  2  0
 18 19  1  0
 16 20  1  0
  8 21  1  0
 21 22  2  0
 21 23  1  0
 23 24  1  0
 24 25  1  0
 25 26  1  0
 26 27  1  0
  6  2  1  0
 10  5  1  0
 18 13  1  0
M  END
>  <BrandName>  (395) 


>  <Applicants>  (395) 
Astrazeneca

>  <CHEMBL_ID>  (395) 
CHEMBL1614701

>  <Canonical_Smiles>  (395) 
Cn1cnc2c1cc(c(c2F)Nc3ccc(cc3Cl)Br)C(=O)NOCCO

>  <Chirality>  (395) 
Achiral Molecule

>  <First_Approval>  (395) 
2020

>  <Phase>  (395) 
4.0

>  <SC_Patent>  (395) 
US-7425637-B2

>  <Synonyms>  (395) 
ARRY-142886 | ARRY-886 | AZD-6244 | AZD6244 | SELUMETINIB

>  <Withdrawn>  (395) 
{''}

>  <Indications>  (395) 
On April 2020 FDA approved selumetinib to treat neurofibromatosis type 1, a genetic disorder of the nervous system causing tumors to grow on nerves.

>  <Type>  (395) 
3

>  <targets_id>  (395) 
Q02750|P36507

>  <Inchi>  (395) 
InChI=1S/C17H15BrClFN4O3/c1-24-8-21-16-13(24)7-10(17(26)23-27-5-4-25)15(14(16)20)22-12-3-2-9(18)6-11(12)19/h2-3,6-8,22,25H,4-5H2,1H3,(H,23,26)

>  <stdInchikey>  (395) 
CYOHGALHFOKKQC-UHFFFAOYSA-N

>  <csid>  (395) 
8303141

>  <Links>  (395) 
|http://www.chemspider.com/Chemical-Structure.8303141.html|https://www.ebi.ac.uk/chembldb/compound/inspect/CHEMBL1614701|https://pubchem.ncbi.nlm.nih.gov/compound/10127622|https://go.drugbank.com/drugs/DB11689|https://www.rcsb.org/ligand/3EW|https://www.ebi.ac.uk/pdbe-srv/pdbechem/chemicalCompound/show/3EW|https://www.guidetopharmacology.org/GRAC/LigandDisplayForward?5665|https://zinc15.docking.org/substances/ZINC000031773258|https://precision.fda.gov/uniisearch/srs/unii/6UH91I579U|https://www.bindingdb.org/bind/chemsearch/marvin/MolStructure.jsp?monomerid=50355497

>  <LinkName>  (395) 
|ChemSpider|ChEMBL|PubChem|DrugBank|RCSB|PDBe|Guide to Pharmacology|ZINC|FDA SRS|BindingDB

>  <lig_pdb_ID>  (395) 
3EW

>  <pdb_IDs>  (395) 
4u7z 7jut 7juz 7m0t

>  <indicationDB>  (395) 


>  <uniprotId>  (395) 


>  <indicationG2P>  (395) 
None

>  <MW>  (395) 
456.0

>  <HBA>  (395) 
6

>  <HBD>  (395) 
3

>  <NRB>  (395) 
6

>  <TPSA>  (395) 
88.4

>  <LogP>  (395) 
3.5

>  <RoF>  (395) 
0

>  <Melting point>  (395) 
nan

>  <Targets>  (395) 
MAP2K1; MAP2K2

>  <Kinase families>  (395) 
STE

>  <FDA_approved>  (395) 
Y

$$$$
Ruxolitinib
     RDKit          2D

 23 26  0  0  0  0  0  0  0  0999 V2000
    3.7938   -1.8866    0.0000 C   0  0  0  0  0  0  0  0  0  0  0  0
    5.2306   -2.3176    0.0000 C   0  0  0  0  0  0  0  0  0  0  0  0
    6.0845   -1.0844    0.0000 N   0  0  0  0  0  0  0  0  0  0  0  0
    5.1756    0.1088    0.0000 C   0  0  0  0  0  0  0  0  0  0  0  0
    3.7599   -0.3869    0.0000 C   0  0  0  0  0  0  0  0  0  0  0  0
    2.6227    0.5912    0.0000 C   0  0  0  0  0  0  0  0  0  0  0  0
    2.9012    2.0651    0.0000 N   0  0  0  0  0  0  0  0  0  0  0  0
    4.3169    2.5609    0.0000 C   0  0  0  0  0  0  0  0  0  0  0  0
    5.4541    1.5827    0.0000 N   0  0  0  0  0  0  0  0  0  0  0  0
    1.2070    0.0955    0.0000 C   0  0  0  0  0  0  0  0  0  0  0  0
    0.7759   -1.3412    0.0000 C   0  0  0  0  0  0  0  0  0  0  0  0
   -0.7237   -1.3752    0.0000 N   0  0  0  0  0  0  0  0  0  0  0  0
   -1.2195    0.0405    0.0000 N   0  0  0  0  0  0  0  0  0  0  0  0
   -0.0262    0.9494    0.0000 C   0  0  0  0  0  0  0  0  0  0  0  0
   -2.6562    0.4716    0.0000 C   0  0  0  0  0  0  0  0  0  0  0  0
   -3.0012    1.9313    0.0000 C   0  0  0  0  0  0  0  0  0  0  0  0
   -4.4380    2.3624    0.0000 C   0  0  0  0  0  0  0  0  0  0  0  0
   -5.8747    2.7935    0.0000 N   0  0  0  0  0  0  0  0  0  0  0  0
   -3.7479   -0.5571    0.0000 C   0  0  0  0  0  0  0  0  0  0  0  0
   -3.5573   -2.0450    0.0000 C   0  0  0  0  0  0  0  0  0  0  0  0
   -4.9135   -2.6860    0.0000 C   0  0  0  0  0  0  0  0  0  0  0  0
   -5.9422   -1.5943    0.0000 C   0  0  0  0  0  0  0  0  0  0  0  0
   -5.2218   -0.2786    0.0000 C   0  0  0  0  0  0  0  0  0  0  0  0
  1  2  2  0
  2  3  1  0
  3  4  1  0
  4  5  2  0
  5  6  1  0
  6  7  2  0
  7  8  1  0
  8  9  2  0
  6 10  1  0
 10 11  1  0
 11 12  2  0
 12 13  1  0
 13 14  1  0
 13 15  1  0
 15 16  1  1
 16 17  1  0
 17 18  3  0
 15 19  1  0
 19 20  1  0
 20 21  1  0
 21 22  1  0
 22 23  1  0
  5  1  1  0
  9  4  1  0
 14 10  2  0
 23 19  1  0
M  END
>  <BrandName>  (396) 
Jakafi;Jakavi

>  <Applicants>  (396) 
Incyte Corporation

>  <CHEMBL_ID>  (396) 
CHEMBL1789941

>  <Canonical_Smiles>  (396) 
c1c[nH]c2c1c(ncn2)c3cnn(c3)[C@H](CC#N)C4CCCC4

>  <Chirality>  (396) 
Single Stereoisomer

>  <First_Approval>  (396) 
2011

>  <Phase>  (396) 
4.0

>  <SC_Patent>  (396) 
US-7598257-B2

>  <Synonyms>  (396) 
INC-424 | INC424 | INCB-018424 | INCB-18424 | INCB018424 | JAKAVI | RUXOLITINIB

>  <Withdrawn>  (396) 
{'', 'Study NCT02973711 in United States was Withdrawn during PHASE1 because lack of funding'}

>  <Indications>  (396) 
Treatment of intermediate or high-risk myelofibrosis, including primary myelofibrosis, post-polycythemia vera (post-PV) myelofibrosis and post-essential thrombocythemia (post-ET) myelofibrosis. [Lexicomp] Myeolofibrosis is the proliferation of abnormal bone marrow stem cells which cause fibrosis (the excessive formation of connective tissue).

>  <Type>  (396) 
1

>  <targets_id>  (396) 
P23458|O60674

>  <Inchi>  (396) 
InChI=1S/C17H18N6/c18-7-5-15(12-3-1-2-4-12)23-10-13(9-22-23)16-14-6-8-19-17(14)21-11-20-16/h6,8-12,15H,1-5H2,(H,19,20,21)/t15-/m1/s1

>  <stdInchikey>  (396) 
HFNKQEVNSGCOJV-OAHLLOKOSA-N

>  <csid>  (396) 
25027389

>  <Links>  (396) 
|http://www.chemspider.com/Chemical-Structure.25027389.html|https://www.ebi.ac.uk/chembldb/compound/inspect/CHEMBL1789941|https://pubchem.ncbi.nlm.nih.gov/compound/25126798|https://go.drugbank.com/drugs/DB08877|https://www.rcsb.org/ligand/RXT|https://www.ebi.ac.uk/pdbe-srv/pdbechem/chemicalCompound/show/RXT|https://www.guidetopharmacology.org/GRAC/LigandDisplayForward?5688|https://zinc15.docking.org/substances/ZINC000043207851|https://precision.fda.gov/uniisearch/srs/unii/82S8X8XX8H|https://www.bindingdb.org/bind/chemsearch/marvin/MolStructure.jsp?monomerid=50355501

>  <LinkName>  (396) 
|ChemSpider|ChEMBL|PubChem|DrugBank|RCSB|PDBe|Guide to Pharmacology|ZINC|FDA SRS|BindingDB

>  <lig_pdb_ID>  (396) 
RXT

>  <pdb_IDs>  (396) 
4u5j 6vgl 6vnk 6wtn 7f3g

>  <indicationDB>  (396) 


>  <uniprotId>  (396) 


>  <indicationG2P>  (396) 
None

>  <MW>  (396) 
306.2

>  <HBA>  (396) 
5

>  <HBD>  (396) 
1

>  <NRB>  (396) 
4

>  <TPSA>  (396) 
83.2

>  <LogP>  (396) 
3.5

>  <RoF>  (396) 
0

>  <Melting point>  (396) 
86

>  <Targets>  (396) 
JAK1; JAK2

>  <Kinase families>  (396) 
Tyr

>  <FDA_approved>  (396) 
Y

$$$$
Tucatinib
     RDKit          2D

 36 41  0  0  0  0  0  0  0  0999 V2000
   -2.7226    4.0612    0.0000 C   0  0  0  0  0  0  0  0  0  0  0  0
   -2.1584    2.6713    0.0000 C   0  0  0  0  0  0  0  0  0  0  0  0
   -0.6727    2.4651    0.0000 C   0  0  0  0  0  0  0  0  0  0  0  0
   -0.1084    1.0752    0.0000 C   0  0  0  0  0  0  0  0  0  0  0  0
   -1.0299   -0.1083    0.0000 C   0  0  0  0  0  0  0  0  0  0  0  0
   -2.5157    0.0980    0.0000 C   0  0  0  0  0  0  0  0  0  0  0  0
   -3.0799    1.4878    0.0000 C   0  0  0  0  0  0  0  0  0  0  0  0
   -4.5657    1.6941    0.0000 O   0  0  0  0  0  0  0  0  0  0  0  0
   -5.4872    0.5105    0.0000 C   0  0  0  0  0  0  0  0  0  0  0  0
   -4.9229   -0.8793    0.0000 C   0  0  0  0  0  0  0  0  0  0  0  0
   -5.8445   -2.0629    0.0000 C   0  0  0  0  0  0  0  0  0  0  0  0
   -7.3302   -1.8566    0.0000 N   0  0  0  0  0  0  0  0  0  0  0  0
   -7.8944   -0.4668    0.0000 C   0  0  0  0  0  0  0  0  0  0  0  0
   -6.9729    0.7168    0.0000 C   0  0  0  0  0  0  0  0  0  0  0  0
   -9.3906   -0.5739    0.0000 N   0  0  0  0  0  0  0  0  0  0  0  0
   -9.7511   -2.0300    0.0000 C   0  0  0  0  0  0  0  0  0  0  0  0
   -8.4777   -2.8227    0.0000 N   0  0  0  0  0  0  0  0  0  0  0  0
    1.3773    0.8690    0.0000 N   0  0  0  0  0  0  0  0  0  0  0  0
    2.2988    2.0525    0.0000 C   0  0  0  0  0  0  0  0  0  0  0  0
    3.7846    1.8463    0.0000 C   0  0  0  0  0  0  0  0  0  0  0  0
    4.3488    0.4564    0.0000 C   0  0  0  0  0  0  0  0  0  0  0  0
    5.8346    0.2502    0.0000 C   0  0  0  0  0  0  0  0  0  0  0  0
    6.7561    1.4337    0.0000 C   0  0  0  0  0  0  0  0  0  0  0  0
    6.1919    2.8235    0.0000 C   0  0  0  0  0  0  0  0  0  0  0  0
    4.7061    3.0298    0.0000 C   0  0  0  0  0  0  0  0  0  0  0  0
    4.1419    4.4197    0.0000 N   0  0  0  0  0  0  0  0  0  0  0  0
    2.6561    4.6259    0.0000 C   0  0  0  0  0  0  0  0  0  0  0  0
    1.7346    3.4424    0.0000 N   0  0  0  0  0  0  0  0  0  0  0  0
    6.3988   -1.1397    0.0000 N   0  0  0  0  0  0  0  0  0  0  0  0
    5.4773   -2.3232    0.0000 C   0  0  0  0  0  0  0  0  0  0  0  0
    5.8932   -3.7644    0.0000 N   0  0  0  0  0  0  0  0  0  0  0  0
    4.6510   -4.6053    0.0000 C   0  0  0  0  0  0  0  0  0  0  0  0
    3.4675   -3.6838    0.0000 C   0  0  0  0  0  0  0  0  0  0  0  0
    3.9781   -2.2734    0.0000 O   0  0  0  0  0  0  0  0  0  0  0  0
    5.6171   -5.7528    0.0000 C   0  0  0  0  0  0  0  0  0  0  0  0
    3.6108   -5.6861    0.0000 C   0  0  0  0  0  0  0  0  0  0  0  0
  1  2  1  0
  2  3  2  0
  3  4  1  0
  4  5  2  0
  5  6  1  0
  6  7  2  0
  7  8  1  0
  8  9  1  0
  9 10  1  0
 10 11  2  0
 11 12  1  0
 12 13  1  0
 13 14  1  0
 13 15  2  0
 15 16  1  0
 16 17  2  0
  4 18  1  0
 18 19  1  0
 19 20  1  0
 20 21  2  0
 21 22  1  0
 22 23  2  0
 23 24  1  0
 24 25  2  0
 25 26  1  0
 26 27  2  0
 27 28  1  0
 22 29  1  0
 29 30  1  0
 30 31  2  0
 31 32  1  0
 32 33  1  0
 33 34  1  0
 32 35  1  0
 32 36  1  0
  7  2  1  0
 14  9  2  0
 17 12  1  0
 28 19  2  0
 25 20  1  0
 34 30  1  0
M  END
>  <BrandName>  (397) 
Tukysa

>  <Applicants>  (397) 
Array BioPharma

>  <CHEMBL_ID>  (397) 
CHEMBL3989868

>  <Canonical_Smiles>  (397) 
Cc1cc(ccc1Oc2ccn3c(c2)ncn3)Nc4c5cc(ccc5ncn4)NC6=NC(CO6)(C)C

>  <Chirality>  (397) 
Achiral Molecule

>  <First_Approval>  (397) 
2020

>  <Phase>  (397) 
4.0

>  <SC_Patent>  (397) 
US-7452895-B2

>  <Synonyms>  (397) 
ARRY-380 | IRBINITINIB | MK-7119 | ONT-380 | TUCATINIB | TUKYSA

>  <Withdrawn>  (397) 
{'', 'Study NCT05356897 in United States was Withdrawn during PHASE2 because no sites were regulatory ready and the SC took the study to a different group', 'Study NCT04512261 in United States was Withdrawn during PHASE1 because Study withdrawn due to change in treatment landscape for HER2+ metastatic breast cancer', 'Study NCT04896320 in United States was Withdrawn during PHASE1 because Study will be closed due to zero enrollment', 'Study NCT05227131 in unknown country was Withdrawn during PHASE2 because Funder decided to not continue the study', 'Study NCT03846583 in unknown country was Withdrawn during PHASE1 because Study halted prematurely, prior to enrollment of first participant'}

>  <Indications>  (397) 
On April 2020, FDA approved tucatinib to treat advanced unresectable or metastatic HER2-positive breast cancer.

>  <Type>  (397) 
nan

>  <targets_id>  (397) 
P04626

>  <Inchi>  (397) 
InChI=1S/C26H24N8O2/c1-16-10-17(5-7-22(16)36-19-8-9-34-23(12-19)28-15-30-34)31-24-20-11-18(4-6-21(20)27-14-29-24)32-25-33-26(2,3)13-35-25/h4-12,14-15H,13H2,1-3H3,(H,32,33)(H,27,29,31)

>  <stdInchikey>  (397) 
SDEAXTCZPQIFQM-UHFFFAOYSA-N

>  <csid>  (397) 
34995558

>  <Links>  (397) 
|http://www.chemspider.com/Chemical-Structure.34995558.html|https://www.ebi.ac.uk/chembldb/compound/inspect/CHEMBL3989868|https://pubchem.ncbi.nlm.nih.gov/compound/51039094|https://go.drugbank.com/drugs/DB11652|https://www.guidetopharmacology.org/GRAC/LigandDisplayForward?9922|https://zinc15.docking.org/substances/ZINC000068250462|https://precision.fda.gov/uniisearch/srs/unii/234248D0HH|https://www.bindingdb.org/bind/chemsearch/marvin/MolStructure.jsp?monomerid=471617

>  <LinkName>  (397) 
|ChemSpider|ChEMBL|PubChem|DrugBank|Guide to Pharmacology|ZINC|FDA SRS|BindingDB

>  <lig_pdb_ID>  (397) 


>  <pdb_IDs>  (397) 


>  <indicationDB>  (397) 


>  <uniprotId>  (397) 


>  <indicationG2P>  (397) 
None

>  <MW>  (397) 
480.2

>  <HBA>  (397) 
10

>  <HBD>  (397) 
2

>  <NRB>  (397) 
5

>  <TPSA>  (397) 
110.9

>  <LogP>  (397) 
5.1

>  <RoF>  (397) 
1

>  <Melting point>  (397) 
230

>  <Targets>  (397) 
ERBB2

>  <Kinase families>  (397) 
Tyr

>  <FDA_approved>  (397) 
Y

$$$$
Regorafenib
     RDKit          2D

 33 35  0  0  0  0  0  0  0  0999 V2000
  -11.0440   -0.5921    0.0000 C   0  0  0  0  0  0  0  0  0  0  0  0
   -9.5577   -0.3895    0.0000 N   0  0  0  0  0  0  0  0  0  0  0  0
   -8.6391   -1.5753    0.0000 C   0  0  0  0  0  0  0  0  0  0  0  0
   -9.2067   -2.9637    0.0000 O   0  0  0  0  0  0  0  0  0  0  0  0
   -7.1529   -1.3726    0.0000 C   0  0  0  0  0  0  0  0  0  0  0  0
   -6.5852    0.0158    0.0000 C   0  0  0  0  0  0  0  0  0  0  0  0
   -5.0990    0.2185    0.0000 C   0  0  0  0  0  0  0  0  0  0  0  0
   -4.1804   -0.9673    0.0000 C   0  0  0  0  0  0  0  0  0  0  0  0
   -4.7480   -2.3558    0.0000 C   0  0  0  0  0  0  0  0  0  0  0  0
   -6.2342   -2.5584    0.0000 N   0  0  0  0  0  0  0  0  0  0  0  0
   -4.5314    1.6070    0.0000 O   0  0  0  0  0  0  0  0  0  0  0  0
   -3.0451    1.8096    0.0000 C   0  0  0  0  0  0  0  0  0  0  0  0
   -2.1265    0.6238    0.0000 C   0  0  0  0  0  0  0  0  0  0  0  0
   -0.6403    0.8265    0.0000 C   0  0  0  0  0  0  0  0  0  0  0  0
   -0.0726    2.2149    0.0000 C   0  0  0  0  0  0  0  0  0  0  0  0
   -0.9913    3.4007    0.0000 C   0  0  0  0  0  0  0  0  0  0  0  0
   -2.4775    3.1981    0.0000 C   0  0  0  0  0  0  0  0  0  0  0  0
   -0.4236    4.7892    0.0000 F   0  0  0  0  0  0  0  0  0  0  0  0
    1.4136    2.4176    0.0000 N   0  0  0  0  0  0  0  0  0  0  0  0
    2.3322    1.2318    0.0000 C   0  0  0  0  0  0  0  0  0  0  0  0
    1.7646   -0.1567    0.0000 O   0  0  0  0  0  0  0  0  0  0  0  0
    3.8185    1.4344    0.0000 N   0  0  0  0  0  0  0  0  0  0  0  0
    4.7371    0.2486    0.0000 C   0  0  0  0  0  0  0  0  0  0  0  0
    4.1695   -1.1398    0.0000 C   0  0  0  0  0  0  0  0  0  0  0  0
    5.0881   -2.3256    0.0000 C   0  0  0  0  0  0  0  0  0  0  0  0
    6.5744   -2.1230    0.0000 C   0  0  0  0  0  0  0  0  0  0  0  0
    7.1420   -0.7345    0.0000 C   0  0  0  0  0  0  0  0  0  0  0  0
    6.2234    0.4513    0.0000 C   0  0  0  0  0  0  0  0  0  0  0  0
    8.6282   -0.5319    0.0000 C   0  0  0  0  0  0  0  0  0  0  0  0
   10.1145   -0.3292    0.0000 F   0  0  0  0  0  0  0  0  0  0  0  0
    8.4256    0.9544    0.0000 F   0  0  0  0  0  0  0  0  0  0  0  0
    8.8309   -2.0181    0.0000 F   0  0  0  0  0  0  0  0  0  0  0  0
    7.4930   -3.3088    0.0000 Cl  0  0  0  0  0  0  0  0  0  0  0  0
  1  2  1  0
  2  3  1  0
  3  4  2  0
  3  5  1  0
  5  6  2  0
  6  7  1  0
  7  8  2  0
  8  9  1  0
  9 10  2  0
  7 11  1  0
 11 12  1  0
 12 13  2  0
 13 14  1  0
 14 15  2  0
 15 16  1  0
 16 17  2  0
 16 18  1  0
 15 19  1  0
 19 20  1  0
 20 21  2  0
 20 22  1  0
 22 23  1  0
 23 24  2  0
 24 25  1  0
 25 26  2  0
 26 27  1  0
 27 28  2  0
 27 29  1  0
 29 30  1  0
 29 31  1  0
 29 32  1  0
 26 33  1  0
 10  5  1  0
 17 12  1  0
 28 23  1  0
M  END
>  <BrandName>  (398) 
Stivarga

>  <Applicants>  (398) 
Bayer

>  <CHEMBL_ID>  (398) 
CHEMBL1946170

>  <Canonical_Smiles>  (398) 
CNC(=O)c1cc(ccn1)Oc2ccc(c(c2)F)NC(=O)Nc3ccc(c(c3)C(F)(F)F)Cl

>  <Chirality>  (398) 
Achiral Molecule

>  <First_Approval>  (398) 
2012

>  <Phase>  (398) 
4.0

>  <SC_Patent>  (398) 
US-8637553-B2

>  <Synonyms>  (398) 
BAY 73-4506 | BAY 73-4506 MONOHYDRATE | BAY-73-4506 | BAY-734506 | REGORAFENIB | REGORAFENIB ANHYDROUS | REGORAFENIB HYDRATE | REGORAFENIB MONOHYDRATE | STIVARGA

>  <Withdrawn>  (398) 
{'', 'Study NCT06575725 in unknown country was Withdrawn during PHASE2 because Abandoned 9/23/24', 'Study NCT05730673 in unknown country was Withdrawn during PHASE2 because No participants enrolled'}

>  <Indications>  (398) 
Regorafenib is indicated for the treatment of patients with metastatic colorectal cancer (CRC) who have been previously treated with fluoropyrimidine-, oxaliplatin- and irinotecan-based chemotherapy, an anti-VEGF therapy, and, if KRAS wild type, an anti-EGFR therapy. Regorafenib is also indicated for the treatment of patients with locally advanced, unresectable or metastatic gastrointestinal stromal tumor (GIST) who have been previously treated with imatinib mesylate and sunitinib malate.

>  <Type>  (398) 
2

>  <targets_id>  (398) 
P17948|P35968|P35916|P10721|P16234|P09619|P11362|P21802|Q02763|Q16832|P04629|P29317|P04049|P15056|Q15759|P42685|P00519|P07949

>  <Inchi>  (398) 
InChI=1S/C21H15ClF4N4O3/c1-27-19(31)18-10-13(6-7-28-18)33-12-3-5-17(16(23)9-12)30-20(32)29-11-2-4-15(22)14(8-11)21(24,25)26/h2-10H,1H3,(H,27,31)(H2,29,30,32)

>  <stdInchikey>  (398) 
FNHKPVJBJVTLMP-UHFFFAOYSA-N

>  <csid>  (398) 
9342697

>  <Links>  (398) 
|http://www.chemspider.com/Chemical-Structure.9342697.html|https://www.ebi.ac.uk/chembldb/compound/inspect/CHEMBL1946170|https://pubchem.ncbi.nlm.nih.gov/compound/11167602|https://go.drugbank.com/drugs/DB08896|https://www.guidetopharmacology.org/GRAC/LigandDisplayForward?5891|https://zinc15.docking.org/substances/ZINC000006745272|https://precision.fda.gov/uniisearch/srs/unii/24T2A1DOYB|https://www.bindingdb.org/bind/chemsearch/marvin/MolStructure.jsp?monomerid=50363397

>  <LinkName>  (398) 
|ChemSpider|ChEMBL|PubChem|DrugBank|Guide to Pharmacology|ZINC|FDA SRS|BindingDB

>  <lig_pdb_ID>  (398) 


>  <pdb_IDs>  (398) 


>  <indicationDB>  (398) 


>  <uniprotId>  (398) 


>  <indicationG2P>  (398) 
None

>  <MW>  (398) 
482.1

>  <HBA>  (398) 
4

>  <HBD>  (398) 
3

>  <NRB>  (398) 
5

>  <TPSA>  (398) 
92.3

>  <LogP>  (398) 
5.7

>  <RoF>  (398) 
1

>  <Melting point>  (398) 
nan

>  <Targets>  (398) 
FLT1; KDR; FLT4; KIT; PDGFRA; PDGFRB; FGFR1; FGFR2; TEK; DDR2; NTRK1; EPHA2; RAF1; BRAF; MAPK11; FRK; ABL1; RET

>  <Kinase families>  (398) 
Tyr<br>CMGC<br>TKL

>  <FDA_approved>  (398) 
Y

$$$$
Repotrectinib
     RDKit          2D

 26 29  0  0  0  0  0  0  0  0999 V2000
    1.5498   -4.5860    0.0000 C   0  0  0  0  0  0  0  0  0  0  0  0
    0.9084   -3.2301    0.0000 C   0  0  0  0  0  0  0  0  0  0  0  0
   -0.5616   -3.5282    0.0000 C   0  0  0  0  0  0  0  0  0  0  0  0
   -2.0019   -3.1091    0.0000 N   0  0  0  0  0  0  0  0  0  0  0  0
   -3.0824   -2.0686    0.0000 C   0  0  0  0  0  0  0  0  0  0  0  0
   -4.3512   -2.8687    0.0000 O   0  0  0  0  0  0  0  0  0  0  0  0
   -3.5556   -0.6452    0.0000 C   0  0  0  0  0  0  0  0  0  0  0  0
   -2.9083    0.7079    0.0000 C   0  0  0  0  0  0  0  0  0  0  0  0
   -1.4695    1.1323    0.0000 N   0  0  0  0  0  0  0  0  0  0  0  0
   -1.1177    2.5904    0.0000 C   0  0  0  0  0  0  0  0  0  0  0  0
   -2.2046    3.6242    0.0000 C   0  0  0  0  0  0  0  0  0  0  0  0
   -3.6433    3.1998    0.0000 C   0  0  0  0  0  0  0  0  0  0  0  0
   -3.9951    1.7417    0.0000 N   0  0  0  0  0  0  0  0  0  0  0  0
   -5.3142    1.0274    0.0000 N   0  0  0  0  0  0  0  0  0  0  0  0
   -5.0425   -0.4478    0.0000 C   0  0  0  0  0  0  0  0  0  0  0  0
    0.4442    2.6121    0.0000 N   0  0  0  0  0  0  0  0  0  0  0  0
    1.7423    1.8605    0.0000 C   0  0  0  0  0  0  0  0  0  0  0  0
    2.5424    0.5917    0.0000 C   0  0  0  0  0  0  0  0  0  0  0  0
    2.6612   -0.9036    0.0000 C   0  0  0  0  0  0  0  0  0  0  0  0
    2.0715   -2.2829    0.0000 O   0  0  0  0  0  0  0  0  0  0  0  0
    4.0156   -1.5484    0.0000 C   0  0  0  0  0  0  0  0  0  0  0  0
    5.2512   -0.6978    0.0000 C   0  0  0  0  0  0  0  0  0  0  0  0
    5.1323    0.7974    0.0000 C   0  0  0  0  0  0  0  0  0  0  0  0
    3.7780    1.4422    0.0000 C   0  0  0  0  0  0  0  0  0  0  0  0
    6.3679    1.6480    0.0000 F   0  0  0  0  0  0  0  0  0  0  0  0
    2.7828    2.9409    0.0000 C   0  0  0  0  0  0  0  0  0  0  0  0
  1  2  1  0
  2  3  1  0
  3  4  1  0
  4  5  1  0
  5  6  2  0
  5  7  1  0
  7  8  2  0
  8  9  1  0
  9 10  2  0
 10 11  1  0
 11 12  2  0
 12 13  1  0
 13 14  1  0
 14 15  2  0
 10 16  1  0
 16 17  1  0
 17 18  1  0
 18 19  2  0
 19 20  1  0
 19 21  1  0
 21 22  2  0
 22 23  1  0
 23 24  2  0
 23 25  1  0
 17 26  1  0
 20  2  1  0
 15  7  1  0
 13  8  1  0
 24 18  1  0
M  END
>  <BrandName>  (399) 
Augtyro

>  <Applicants>  (399) 
TP Therapeutics

>  <CHEMBL_ID>  (399) 
CHEMBL4298138

>  <Canonical_Smiles>  (399) 
CC1CNC(=O)C2=C3N=C(C=CN3N=C2)NC(C4=C(O1)C=CC(=C4)F)C

>  <Chirality>  (399) 
Single Stereoisomer

>  <First_Approval>  (399) 
2023

>  <Phase>  (399) 
4.0

>  <SC_Patent>  (399) 
nan

>  <Synonyms>  (399) 
AUGTYRO | REPOTRECTINIB | TPX-0005 | TRX-0005

>  <Withdrawn>  (399) 
{''}

>  <Indications>  (399) 
On November 2023, FDA approved Repotrectinib to treat ROS1-positive non-small cell lung cancer

>  <Type>  (399) 
nan

>  <targets_id>  (399) 
nan

>  <Inchi>  (399) 
InChI=1S/C18H18FN5O2/c1-10-8-20-18(25)14-9-21-24-6-5-16(23-17(14)24)22-11(2)13-7-12(19)3-4-15(13)26-10/h3-7,9-11H,8H2,1-2H3,(H,20,25)(H,22,23)/t10-,11+/m0/s1

>  <stdInchikey>  (399) 
FIKPXCOQUIZNHB-WDEREUQCSA-N

>  <csid>  (399) 
71084199

>  <Links>  (399) 
|http://www.chemspider.com/Chemical-Structure.71084199.html|https://www.ebi.ac.uk/chembldb/compound/inspect/CHEMBL4298138|https://pubchem.ncbi.nlm.nih.gov/compound/135565923|https://go.drugbank.com/drugs/DB16826|https://www.rcsb.org/ligand/7GI|https://www.ebi.ac.uk/pdbe-srv/pdbechem/chemicalCompound/show/7GI|https://www.guidetopharmacology.org/GRAC/LigandDisplayForward?10316|https://precision.fda.gov/uniisearch/srs/unii/08O3FQ4UNP|https://www.bindingdb.org/bind/chemsearch/marvin/MolStructure.jsp?monomerid=374727

>  <LinkName>  (399) 
|ChemSpider|ChEMBL|PubChem|DrugBank|RCSB|PDBe|Guide to Pharmacology|FDA SRS|BindingDB

>  <lig_pdb_ID>  (399) 
7GI

>  <pdb_IDs>  (399) 
7vkn 7vko

>  <indicationDB>  (399) 


>  <uniprotId>  (399) 


>  <indicationG2P>  (399) 
None

>  <MW>  (399) 
355.1

>  <HBA>  (399) 
6

>  <HBD>  (399) 
2

>  <NRB>  (399) 
0

>  <TPSA>  (399) 
80.6

>  <LogP>  (399) 
2.6

>  <RoF>  (399) 
0

>  <Melting point>  (399) 
nan

>  <Targets>  (399) 
nan

>  <Kinase families>  (399) 


>  <FDA_approved>  (399) 
Y

$$$$
Ribociclib
     RDKit          2D

 32 36  0  0  0  0  0  0  0  0999 V2000
   -8.3251   -1.2153    0.0000 C   0  0  0  0  0  0  0  0  0  0  0  0
   -6.8748   -0.8324    0.0000 N   0  0  0  0  0  0  0  0  0  0  0  0
   -6.4813    0.6151    0.0000 C   0  0  0  0  0  0  0  0  0  0  0  0
   -5.8181   -1.8969    0.0000 C   0  0  0  0  0  0  0  0  0  0  0  0
   -6.2116   -3.3444    0.0000 O   0  0  0  0  0  0  0  0  0  0  0  0
   -4.3678   -1.5140    0.0000 C   0  0  0  0  0  0  0  0  0  0  0  0
   -3.2055   -2.4623    0.0000 C   0  0  0  0  0  0  0  0  0  0  0  0
   -1.9445   -1.6500    0.0000 C   0  0  0  0  0  0  0  0  0  0  0  0
   -0.4971   -2.0435    0.0000 C   0  0  0  0  0  0  0  0  0  0  0  0
    0.5675   -0.9867    0.0000 N   0  0  0  0  0  0  0  0  0  0  0  0
    0.1846    0.4636    0.0000 C   0  0  0  0  0  0  0  0  0  0  0  0
   -1.2629    0.8571    0.0000 N   0  0  0  0  0  0  0  0  0  0  0  0
   -2.3274   -0.1997    0.0000 C   0  0  0  0  0  0  0  0  0  0  0  0
   -3.8251   -0.1157    0.0000 N   0  0  0  0  0  0  0  0  0  0  0  0
   -4.6374    1.1453    0.0000 C   0  0  0  0  0  0  0  0  0  0  0  0
   -6.1351    1.2294    0.0000 C   0  0  0  0  0  0  0  0  0  0  0  0
   -6.5180    2.6797    0.0000 C   0  0  0  0  0  0  0  0  0  0  0  0
   -5.2570    3.4920    0.0000 C   0  0  0  0  0  0  0  0  0  0  0  0
   -4.0947    2.5437    0.0000 C   0  0  0  0  0  0  0  0  0  0  0  0
    1.2491    1.5203    0.0000 N   0  0  0  0  0  0  0  0  0  0  0  0
    2.6966    1.1268    0.0000 C   0  0  0  0  0  0  0  0  0  0  0  0
    3.0795   -0.3235    0.0000 C   0  0  0  0  0  0  0  0  0  0  0  0
    4.5269   -0.7171    0.0000 C   0  0  0  0  0  0  0  0  0  0  0  0
    5.5915    0.3397    0.0000 C   0  0  0  0  0  0  0  0  0  0  0  0
    5.2086    1.7900    0.0000 C   0  0  0  0  0  0  0  0  0  0  0  0
    3.7611    2.1835    0.0000 N   0  0  0  0  0  0  0  0  0  0  0  0
    7.0389   -0.0539    0.0000 N   0  0  0  0  0  0  0  0  0  0  0  0
    7.4218   -1.5042    0.0000 C   0  0  0  0  0  0  0  0  0  0  0  0
    8.8693   -1.8977    0.0000 C   0  0  0  0  0  0  0  0  0  0  0  0
    9.9338   -0.8410    0.0000 N   0  0  0  0  0  0  0  0  0  0  0  0
    9.5509    0.6093    0.0000 C   0  0  0  0  0  0  0  0  0  0  0  0
    8.1035    1.0029    0.0000 C   0  0  0  0  0  0  0  0  0  0  0  0
  1  2  1  0
  2  3  1  0
  2  4  1  0
  4  5  2  0
  4  6  1  0
  6  7  2  0
  7  8  1  0
  8  9  2  0
  9 10  1  0
 10 11  2  0
 11 12  1  0
 12 13  2  0
 13 14  1  0
 14 15  1  0
 15 16  1  0
 16 17  1  0
 17 18  1  0
 18 19  1  0
 11 20  1  0
 20 21  1  0
 21 22  2  0
 22 23  1  0
 23 24  2  0
 24 25  1  0
 25 26  2  0
 24 27  1  0
 27 28  1  0
 28 29  1  0
 29 30  1  0
 30 31  1  0
 31 32  1  0
 14  6  1  0
 13  8  1  0
 19 15  1  0
 26 21  1  0
 32 27  1  0
M  END
>  <BrandName>  (400) 
Kisqali

>  <Applicants>  (400) 
Novartis

>  <CHEMBL_ID>  (400) 
CHEMBL3545110

>  <Canonical_Smiles>  (400) 
CN(C)C(=O)c1cc2cnc(nc2n1C3CCCC3)Nc4ccc(cn4)N5CCNCC5

>  <Chirality>  (400) 
Achiral Molecule

>  <First_Approval>  (400) 
2017

>  <Phase>  (400) 
4.0

>  <SC_Patent>  (400) 
US-8324225-B2

>  <Synonyms>  (400) 
LEE-011 | LEE-011A | LEE011 | LEE011A | NVP-LEE011 | RIBOCICLIB

>  <Withdrawn>  (400) 
{'', 'Study NCT05691400 in unknown country was Withdrawn during PHASE4 because funding was not secured', 'Study NCT04585724 in unknown country was Withdrawn during PHASE1 because Closed due to low (0) accrual'}

>  <Indications>  (400) 
Kisqali (ribociclib) is a selective cyclin-dependent kinase inhibitor, a class of drugs that help slow the progression of cancer by inhibiting two proteins called cyclin-dependent kinase 4 and 6 (CDK4/6). These proteins, when over-activated, can enable cancer cells to grow and divide too quickly. Targeting CDK4/6 with enhanced precision may play a role in ensuring that cancer cells do not continue to replicate uncontrollably.

>  <Type>  (400) 
1

>  <targets_id>  (400) 
P11802|Q00534

>  <Inchi>  (400) 
InChI=1S/C23H30N8O/c1-29(2)22(32)19-13-16-14-26-23(28-21(16)31(19)17-5-3-4-6-17)27-20-8-7-18(15-25-20)30-11-9-24-10-12-30/h7-8,13-15,17,24H,3-6,9-12H2,1-2H3,(H,25,26,27,28)

>  <stdInchikey>  (400) 
RHXHGRAEPCAFML-UHFFFAOYSA-N

>  <csid>  (400) 
30798107

>  <Links>  (400) 
|http://www.chemspider.com/Chemical-Structure.30798107.html|https://www.ebi.ac.uk/chembldb/compound/inspect/CHEMBL3545110|https://pubchem.ncbi.nlm.nih.gov/compound/44631912|https://go.drugbank.com/drugs/DB11730|https://www.rcsb.org/ligand/6ZZ|https://www.ebi.ac.uk/pdbe-srv/pdbechem/chemicalCompound/show/6ZZ|https://www.guidetopharmacology.org/GRAC/LigandDisplayForward?7383|https://zinc15.docking.org/substances/ZINC000072316335|https://precision.fda.gov/uniisearch/srs/unii/TK8ERE8P56|https://www.bindingdb.org/bind/chemsearch/marvin/MolStructure.jsp?monomerid=148264

>  <LinkName>  (400) 
|ChemSpider|ChEMBL|PubChem|DrugBank|RCSB|PDBe|Guide to Pharmacology|ZINC|FDA SRS|BindingDB

>  <lig_pdb_ID>  (400) 
6ZZ

>  <pdb_IDs>  (400) 
5l2t

>  <indicationDB>  (400) 


>  <uniprotId>  (400) 


>  <indicationG2P>  (400) 
None

>  <MW>  (400) 
434.3

>  <HBA>  (400) 
8

>  <HBD>  (400) 
2

>  <NRB>  (400) 
5

>  <TPSA>  (400) 
91.2

>  <LogP>  (400) 
2.8

>  <RoF>  (400) 
0

>  <Melting point>  (400) 
nan

>  <Targets>  (400) 
CDK4; CDK6

>  <Kinase families>  (400) 
CMGC

>  <FDA_approved>  (400) 
Y

$$$$
Ritlecitinib
     RDKit          2D

 21 23  0  0  0  0  0  0  0  0999 V2000
    3.3464   -3.7425    0.0000 C   0  0  0  0  0  0  0  0  0  0  0  0
    2.6443   -2.4170    0.0000 C   0  0  0  0  0  0  0  0  0  0  0  0
    3.4412   -1.1461    0.0000 C   0  0  0  0  0  0  0  0  0  0  0  0
    4.9402   -1.2009    0.0000 O   0  0  0  0  0  0  0  0  0  0  0  0
    2.7391    0.1794    0.0000 N   0  0  0  0  0  0  0  0  0  0  0  0
    1.2401    0.2341    0.0000 C   0  0  0  0  0  0  0  0  0  0  0  0
    0.5380    1.5596    0.0000 C   0  0  0  0  0  0  0  0  0  0  0  0
   -0.9610    1.6144    0.0000 N   0  0  0  0  0  0  0  0  0  0  0  0
   -1.7579    0.3435    0.0000 C   0  0  0  0  0  0  0  0  0  0  0  0
   -1.0558   -0.9820    0.0000 N   0  0  0  0  0  0  0  0  0  0  0  0
   -1.8527   -2.2528    0.0000 C   0  0  0  0  0  0  0  0  0  0  0  0
   -3.3517   -2.1981    0.0000 N   0  0  0  0  0  0  0  0  0  0  0  0
   -4.0538   -0.8726    0.0000 C   0  0  0  0  0  0  0  0  0  0  0  0
   -5.5087   -0.5074    0.0000 N   0  0  0  0  0  0  0  0  0  0  0  0
   -5.6110    0.9891    0.0000 C   0  0  0  0  0  0  0  0  0  0  0  0
   -4.2193    1.5489    0.0000 C   0  0  0  0  0  0  0  0  0  0  0  0
   -3.2569    0.3983    0.0000 C   0  0  0  0  0  0  0  0  0  0  0  0
    1.3348    2.8305    0.0000 C   0  0  0  0  0  0  0  0  0  0  0  0
    2.8338    2.7757    0.0000 C   0  0  0  0  0  0  0  0  0  0  0  0
    3.5360    1.4502    0.0000 C   0  0  0  0  0  0  0  0  0  0  0  0
    5.0350    1.3955    0.0000 C   0  0  0  0  0  0  0  0  0  0  0  0
  1  2  2  0
  2  3  1  0
  3  4  2  0
  3  5  1  0
  5  6  1  0
  6  7  1  0
  7  8  1  6
  8  9  1  0
  9 10  2  0
 10 11  1  0
 11 12  2  0
 12 13  1  0
 13 14  1  0
 14 15  1  0
 15 16  2  0
 16 17  1  0
  7 18  1  0
 18 19  1  0
 19 20  1  0
 20 21  1  6
 20  5  1  0
 17  9  1  0
 17 13  2  0
M  END
>  <BrandName>  (401) 


>  <Applicants>  (401) 
Pfizer

>  <CHEMBL_ID>  (401) 
CHEMBL4085457

>  <Canonical_Smiles>  (401) 
C=CC(=O)N1C[C@H](Nc2ncnc3[nH]ccc23)CC[C@@H]1C

>  <Chirality>  (401) 
Single Stereoisomer

>  <First_Approval>  (401) 
2023

>  <Phase>  (401) 
4.0

>  <SC_Patent>  (401) 
US-9617258-B2

>  <Synonyms>  (401) 
PF-06651600 | RITLECITINIB

>  <Withdrawn>  (401) 
{''}

>  <Indications>  (401) 
On June 2023, FDA approved Ritlecitinib to treat severely patchy hair loss

>  <Type>  (401) 
nan

>  <targets_id>  (401) 
nan

>  <Inchi>  (401) 
InChI=1S/C15H19N5O/c1-3-13(21)20-8-11(5-4-10(20)2)19-15-12-6-7-16-14(12)17-9-18-15/h3,6-7,9-11H,1,4-5,8H2,2H3,(H2,16,17,18,19)/t10-,11+/m0/s1

>  <stdInchikey>  (401) 
CBRJPFGIXUFMTM-WDEREUQCSA-N

>  <csid>  (401) 
59718512

>  <Links>  (401) 
|http://www.chemspider.com/Chemical-Structure.59718512.html|https://www.ebi.ac.uk/chembldb/compound/inspect/CHEMBL4085457|https://pubchem.ncbi.nlm.nih.gov/compound/118115473|https://go.drugbank.com/drugs/DB14924|https://www.guidetopharmacology.org/GRAC/LigandDisplayForward?9559|https://zinc15.docking.org/substances/ZINC000526061581|https://precision.fda.gov/uniisearch/srs/unii/2OYE00PC25

>  <LinkName>  (401) 
|ChemSpider|ChEMBL|PubChem|DrugBank|Guide to Pharmacology|ZINC|FDA SRS

>  <lig_pdb_ID>  (401) 


>  <pdb_IDs>  (401) 


>  <indicationDB>  (401) 


>  <uniprotId>  (401) 


>  <indicationG2P>  (401) 
None

>  <MW>  (401) 
285.2

>  <HBA>  (401) 
4

>  <HBD>  (401) 
2

>  <NRB>  (401) 
3

>  <TPSA>  (401) 
73.9

>  <LogP>  (401) 
1.9

>  <RoF>  (401) 
0

>  <Melting point>  (401) 
nan

>  <Targets>  (401) 
nan

>  <Kinase families>  (401) 


>  <FDA_approved>  (401) 
Y

$$$$
Tofacitinib
     RDKit          2D

 23 25  0  0  0  0  0  0  0  0999 V2000
    1.2305   -4.2699    0.0000 C   0  0  0  0  0  0  0  0  0  0  0  0
    0.2250   -3.1568    0.0000 C   0  0  0  0  0  0  0  0  0  0  0  0
   -1.2417   -3.4711    0.0000 C   0  0  0  0  0  0  0  0  0  0  0  0
   -2.2473   -2.3581    0.0000 C   0  0  0  0  0  0  0  0  0  0  0  0
   -1.7861   -0.9307    0.0000 N   0  0  0  0  0  0  0  0  0  0  0  0
   -0.3194   -0.6164    0.0000 C   0  0  0  0  0  0  0  0  0  0  0  0
    0.6861   -1.7295    0.0000 C   0  0  0  0  0  0  0  0  0  0  0  0
    2.1528   -1.4151    0.0000 N   0  0  0  0  0  0  0  0  0  0  0  0
    3.1584   -2.5282    0.0000 C   0  0  0  0  0  0  0  0  0  0  0  0
    2.6139    0.0122    0.0000 C   0  0  0  0  0  0  0  0  0  0  0  0
    1.6084    1.1252    0.0000 C   0  0  0  0  0  0  0  0  0  0  0  0
    0.1084    1.1227    0.0000 C   0  0  0  0  0  0  0  0  0  0  0  0
   -0.3575    2.5485    0.0000 C   0  0  0  0  0  0  0  0  0  0  0  0
    0.8545    3.4323    0.0000 N   0  0  0  0  0  0  0  0  0  0  0  0
    2.0695    2.5526    0.0000 C   0  0  0  0  0  0  0  0  0  0  0  0
    3.5362    2.8669    0.0000 N   0  0  0  0  0  0  0  0  0  0  0  0
    4.5418    1.7539    0.0000 C   0  0  0  0  0  0  0  0  0  0  0  0
    4.0806    0.3265    0.0000 N   0  0  0  0  0  0  0  0  0  0  0  0
   -2.7917    0.1823    0.0000 C   0  0  0  0  0  0  0  0  0  0  0  0
   -2.3306    1.6097    0.0000 O   0  0  0  0  0  0  0  0  0  0  0  0
   -4.2584   -0.1320    0.0000 C   0  0  0  0  0  0  0  0  0  0  0  0
   -5.2640    0.9810    0.0000 C   0  0  0  0  0  0  0  0  0  0  0  0
   -6.2695    2.0941    0.0000 N   0  0  0  0  0  0  0  0  0  0  0  0
  2  1  1  6
  2  3  1  0
  3  4  1  0
  4  5  1  0
  5  6  1  0
  6  7  1  0
  7  8  1  6
  8  9  1  0
  8 10  1  0
 10 11  2  0
 11 12  1  0
 12 13  2  0
 13 14  1  0
 14 15  1  0
 15 16  2  0
 16 17  1  0
 17 18  2  0
  5 19  1  0
 19 20  2  0
 19 21  1  0
 21 22  1  0
 22 23  3  0
  7  2  1  0
 18 10  1  0
 15 11  1  0
M  END
>  <BrandName>  (402) 
Xeljanz

>  <Applicants>  (402) 
Pfizer

>  <CHEMBL_ID>  (402) 
CHEMBL221959

>  <Canonical_Smiles>  (402) 
C[C@@H]1CCN(C[C@@H]1N(C)c2c3cc[nH]c3ncn2)C(=O)CC#N

>  <Chirality>  (402) 
Single Stereoisomer

>  <First_Approval>  (402) 
2012

>  <Phase>  (402) 
4.0

>  <SC_Patent>  (402) 
US-6965027-B2

>  <Synonyms>  (402) 
550 | CP 690550 | CP- 690 550 | CP-690 | CP-690 FREE BASE | CP-690,550 | CP-690,550 FREE BASE | CP-690-550 | CP-690550 | CP-690550 FREE BASE | CP690,550 | CP690550 | TOFACITINIB

>  <Withdrawn>  (402) 
{'', 'Study NCT05165771 in unknown country was Withdrawn during PHASE2 because Sponsor decision to withdraw study', 'Study NCT04412252 in United States was Withdrawn during PHASE2 because Due to the pursuit of other SARS-CoV-2-related research including alternative trials with tofacitinib, this trial was canceled prior to subject enrollment', 'Study NCT05379322 in United Arab Emirates was Withdrawn during PHASE3 because Decision of the local healthcare authority'}

>  <Indications>  (402) 
For the treatment of moderate to severe rheumatoid arthritis which is resistant or intolerant to methotrexate therapy. It may also be used as an adjunct to methotrexate therapy, or other non-biologic disease-modifying antirheumatic drugs (DMARDS), when methotrexate alone is not sufficient. Tofacitinib has also been investigated as a preventative therapy for kidney transplant rejections, and as a treatment for psoriasis, ulcerative colitis, and ankylosing spondylitis. It is not to be initiated in patients with a history of chronic or recurrent infections, or in the presence of active infection, even if localized, due to reports of serious and sometimes fatal infections (commonly pneumonia, herpes zoster and urinary tract infections). Use of tofacitinib is also discouraged in those who have been, or are likely to be, exposed to TB. An increased likelihood of exposure may be encountered by traveling to certain areas. In addition, tofacitinib is not to be used in patients with severe hepatic impairment, or low hemoglobin (less than 9g/dL). Cautioned is advised when using tofacitinib in patients at risk of gastrointestinal perforation, and in the elderly who are more susceptible to infection.

>  <Type>  (402) 
1

>  <targets_id>  (402) 
P23458|O60674|P52333|P29597

>  <Inchi>  (402) 
InChI=1S/C16H20N6O/c1-11-5-8-22(14(23)3-6-17)9-13(11)21(2)16-12-4-7-18-15(12)19-10-20-16/h4,7,10-11,13H,3,5,8-9H2,1-2H3,(H,18,19,20)/t11-,13+/m1/s1

>  <stdInchikey>  (402) 
UJLAWZDWDVHWOW-YPMHNXCESA-N

>  <csid>  (402) 
8102425

>  <Links>  (402) 
|http://www.chemspider.com/Chemical-Structure.8102425.html|https://www.ebi.ac.uk/chembldb/compound/inspect/CHEMBL221959|https://pubchem.ncbi.nlm.nih.gov/compound/9926791|https://go.drugbank.com/drugs/DB08895|https://www.rcsb.org/ligand/MI1|https://www.ebi.ac.uk/pdbe-srv/pdbechem/chemicalCompound/show/MI1|https://www.guidetopharmacology.org/GRAC/LigandDisplayForward?5677|https://zinc15.docking.org/substances/ZINC000003818808|https://precision.fda.gov/uniisearch/srs/unii/87LA6FU830|https://www.bindingdb.org/bind/chemsearch/marvin/MolStructure.jsp?monomerid=50193995

>  <LinkName>  (402) 
|ChemSpider|ChEMBL|PubChem|DrugBank|RCSB|PDBe|Guide to Pharmacology|ZINC|FDA SRS|BindingDB

>  <lig_pdb_ID>  (402) 
MI1

>  <pdb_IDs>  (402) 
3eyg 3fup 3lxk 3lxn 4oti

>  <indicationDB>  (402) 


>  <uniprotId>  (402) 


>  <indicationG2P>  (402) 
None

>  <MW>  (402) 
312.2

>  <HBA>  (402) 
5

>  <HBD>  (402) 
1

>  <NRB>  (402) 
3

>  <TPSA>  (402) 
88.9

>  <LogP>  (402) 
1.5

>  <RoF>  (402) 
0

>  <Melting point>  (402) 
White crystalline solid. MP: 199-206 C /Tofacitinib monocitrate/

>  <Targets>  (402) 
JAK1; JAK2; JAK3; TYK2

>  <Kinase families>  (402) 
Tyr

>  <FDA_approved>  (402) 
Y

$$$$
Selpercatinib
     RDKit          2D

 39 44  0  0  0  0  0  0  0  0999 V2000
   -3.8107   -4.9633    0.0000 C   0  0  0  0  0  0  0  0  0  0  0  0
   -2.6683   -3.9913    0.0000 O   0  0  0  0  0  0  0  0  0  0  0  0
   -2.9388   -2.5159    0.0000 C   0  0  0  0  0  0  0  0  0  0  0  0
   -4.3519   -2.0125    0.0000 C   0  0  0  0  0  0  0  0  0  0  0  0
   -4.6225   -0.5371    0.0000 C   0  0  0  0  0  0  0  0  0  0  0  0
   -3.4800    0.4349    0.0000 C   0  0  0  0  0  0  0  0  0  0  0  0
   -3.7506    1.9103    0.0000 C   0  0  0  0  0  0  0  0  0  0  0  0
   -5.1636    2.4137    0.0000 N   0  0  0  0  0  0  0  0  0  0  0  0
   -6.3061    1.4416    0.0000 C   0  0  0  0  0  0  0  0  0  0  0  0
   -4.8931    0.9383    0.0000 C   0  0  0  0  0  0  0  0  0  0  0  0
   -3.7506    1.9103    0.0000 N   0  0  0  0  0  0  0  0  0  0  0  0
   -4.0212    3.3857    0.0000 C   0  0  0  0  0  0  0  0  0  0  0  0
   -5.4342    3.8891    0.0000 C   0  0  0  0  0  0  0  0  0  0  0  0
   -6.5767    2.9170    0.0000 C   0  0  0  0  0  0  0  0  0  0  0  0
   -2.3376    1.4069    0.0000 C   0  0  0  0  0  0  0  0  0  0  0  0
   -2.0670   -0.0684    0.0000 C   0  0  0  0  0  0  0  0  0  0  0  0
   -0.6540   -0.5718    0.0000 C   0  0  0  0  0  0  0  0  0  0  0  0
    0.4884    0.4002    0.0000 C   0  0  0  0  0  0  0  0  0  0  0  0
    0.2179    1.8756    0.0000 C   0  0  0  0  0  0  0  0  0  0  0  0
   -1.1952    2.3790    0.0000 N   0  0  0  0  0  0  0  0  0  0  0  0
    1.9015   -0.1031    0.0000 C   0  0  0  0  0  0  0  0  0  0  0  0
    3.0439    0.8689    0.0000 C   0  0  0  0  0  0  0  0  0  0  0  0
    4.4569    0.3656    0.0000 C   0  0  0  0  0  0  0  0  0  0  0  0
    4.7275   -1.1098    0.0000 C   0  0  0  0  0  0  0  0  0  0  0  0
    3.5851   -2.0819    0.0000 N   0  0  0  0  0  0  0  0  0  0  0  0
    3.5430   -3.5813    0.0000 N   0  0  0  0  0  0  0  0  0  0  0  0
    2.1040   -4.0046    0.0000 C   0  0  0  0  0  0  0  0  0  0  0  0
    1.2567   -2.7668    0.0000 C   0  0  0  0  0  0  0  0  0  0  0  0
   -0.2427   -2.7248    0.0000 C   0  0  0  0  0  0  0  0  0  0  0  0
   -1.7421   -2.6827    0.0000 N   0  0  0  0  0  0  0  0  0  0  0  0
    2.1721   -1.5785    0.0000 C   0  0  0  0  0  0  0  0  0  0  0  0
    5.5994    1.3376    0.0000 O   0  0  0  0  0  0  0  0  0  0  0  0
    7.0124    0.8342    0.0000 C   0  0  0  0  0  0  0  0  0  0  0  0
    8.1548    1.8063    0.0000 C   0  0  0  0  0  0  0  0  0  0  0  0
    7.1828    2.9487    0.0000 C   0  0  0  0  0  0  0  0  0  0  0  0
    9.1268    0.6638    0.0000 C   0  0  0  0  0  0  0  0  0  0  0  0
    9.2972    2.7783    0.0000 O   0  0  0  0  0  0  0  0  0  0  0  0
   -2.0670   -0.0684    0.0000 C   0  0  0  0  0  0  0  0  0  0  0  0
   -1.7964   -1.5438    0.0000 N   0  0  0  0  0  0  0  0  0  0  0  0
  1  2  1  0
  2  3  1  0
  3  4  2  0
  4  5  1  0
  5  6  2  0
  6  7  1  0
  7  8  1  0
  8  9  1  0
  9 10  1  0
 10 11  1  0
 11 12  1  0
 12 13  1  0
 13 14  1  0
 11 15  1  0
 15 16  2  0
 16 17  1  0
 17 18  2  0
 18 19  1  0
 19 20  2  0
 18 21  1  0
 21 22  2  0
 22 23  1  0
 23 24  2  0
 24 25  1  0
 25 26  1  0
 26 27  2  0
 27 28  1  0
 28 29  1  0
 29 30  3  0
 28 31  2  0
 23 32  1  0
 32 33  1  0
 33 34  1  0
 34 35  1  0
 34 36  1  0
 34 37  1  0
  6 38  1  0
 38 39  2  0
 39  3  1  0
 13  8  1  0
 20 15  1  0
 31 21  1  0
 14  9  1  0
 31 25  1  0
M  END
>  <BrandName>  (403) 
Retevmo;Retsevmo

>  <Applicants>  (403) 
Loxo Oncology

>  <CHEMBL_ID>  (403) 
CHEMBL4559134

>  <Canonical_Smiles>  (403) 
COC1C=CC(CN2C3CN(CC2C3)C2C=CC(=CN=2)C2=CC(=CN3N=CC(C#N)=C32)OCC(C)(C)O)=CN=1

>  <Chirality>  (403) 
Achiral Molecule

>  <First_Approval>  (403) 
2020

>  <Phase>  (403) 
4.0

>  <SC_Patent>  (403) 
US-10112942-B2

>  <Synonyms>  (403) 
LOXO-292 | LY-3527723 | LY3527723 | RET INHIBITOR LOXO-292 | RETEVMO | RETSEVMO | SELPERCATINIB

>  <Withdrawn>  (403) 
{'', 'Study NCT05364645 in United States was Withdrawn during PHASE2 because lack of accrual'}

>  <Indications>  (403) 
On May 2020 FDA approved selpercatinib to treat lung and thyroid cancers.

>  <Type>  (403) 
nan

>  <targets_id>  (403) 
nan

>  <Inchi>  (403) 
InChI=1S/C29H31N7O3/c1-29(2,37)18-39-24-9-25(28-21(10-30)13-33-36(28)17-24)20-5-6-26(31-12-20)34-15-22-8-23(16-34)35(22)14-19-4-7-27(38-3)32-11-19/h4-7,9,11-13,17,22-23,37H,8,14-16,18H2,1-3H3

>  <stdInchikey>  (403) 
XIIOFHFUYBLOLW-UHFFFAOYSA-N

>  <csid>  (403) 
72379991

>  <Links>  (403) 
|http://www.chemspider.com/Chemical-Structure.72379991.html|https://www.ebi.ac.uk/chembldb/compound/inspect/CHEMBL4559134|https://pubchem.ncbi.nlm.nih.gov/compound/134436906|https://go.drugbank.com/drugs/DB15685|https://www.guidetopharmacology.org/GRAC/LigandDisplayForward?10318|https://precision.fda.gov/uniisearch/srs/unii/CEGM9YBNGD|https://www.bindingdb.org/bind/chemsearch/marvin/MolStructure.jsp?monomerid=296429

>  <LinkName>  (403) 
|ChemSpider|ChEMBL|PubChem|DrugBank|Guide to Pharmacology|FDA SRS|BindingDB

>  <lig_pdb_ID>  (403) 


>  <pdb_IDs>  (403) 


>  <indicationDB>  (403) 


>  <uniprotId>  (403) 


>  <indicationG2P>  (403) 
None

>  <MW>  (403) 
525.2

>  <HBA>  (403) 
10

>  <HBD>  (403) 
1

>  <NRB>  (403) 
8

>  <TPSA>  (403) 
112.0

>  <LogP>  (403) 
3.3

>  <RoF>  (403) 
1

>  <Melting point>  (403) 
nan

>  <Targets>  (403) 
nan

>  <Kinase families>  (403) 


>  <FDA_approved>  (403) 
Y

$$$$
Pralsetinib
     RDKit          2D

 39 43  0  0  0  0  0  0  0  0999 V2000
  -10.4618    3.3494    0.0000 C   0  0  0  0  0  0  0  0  0  0  0  0
   -9.9041    1.9569    0.0000 C   0  0  0  0  0  0  0  0  0  0  0  0
  -10.7029    0.6873    0.0000 N   0  0  0  0  0  0  0  0  0  0  0  0
   -9.7422   -0.4647    0.0000 N   0  0  0  0  0  0  0  0  0  0  0  0
   -8.3497    0.0929    0.0000 C   0  0  0  0  0  0  0  0  0  0  0  0
   -8.4498    1.5896    0.0000 C   0  0  0  0  0  0  0  0  0  0  0  0
   -7.0801   -0.7058    0.0000 N   0  0  0  0  0  0  0  0  0  0  0  0
   -5.7535   -0.0057    0.0000 C   0  0  0  0  0  0  0  0  0  0  0  0
   -4.4839   -0.8044    0.0000 N   0  0  0  0  0  0  0  0  0  0  0  0
   -3.1573   -0.1042    0.0000 C   0  0  0  0  0  0  0  0  0  0  0  0
   -3.1004    1.3947    0.0000 N   0  0  0  0  0  0  0  0  0  0  0  0
   -4.3700    2.1934    0.0000 C   0  0  0  0  0  0  0  0  0  0  0  0
   -5.6966    1.4933    0.0000 C   0  0  0  0  0  0  0  0  0  0  0  0
   -4.3131    3.6924    0.0000 C   0  0  0  0  0  0  0  0  0  0  0  0
   -1.8876   -0.9030    0.0000 C   0  0  0  0  0  0  0  0  0  0  0  0
   -1.9446   -2.4019    0.0000 C   0  0  0  0  0  0  0  0  0  0  0  0
   -0.6749   -3.2007    0.0000 C   0  0  0  0  0  0  0  0  0  0  0  0
    0.6516   -2.5005    0.0000 C   0  0  0  0  0  0  0  0  0  0  0  0
    0.7086   -1.0016    0.0000 C   0  0  0  0  0  0  0  0  0  0  0  0
   -0.5611   -0.2028    0.0000 C   0  0  0  0  0  0  0  0  0  0  0  0
    1.1108   -3.9285    0.0000 O   0  0  0  0  0  0  0  0  0  0  0  0
    0.1037   -5.0401    0.0000 C   0  0  0  0  0  0  0  0  0  0  0  0
    2.1377   -2.2963    0.0000 C   0  0  0  0  0  0  0  0  0  0  0  0
    2.7038   -0.9072    0.0000 O   0  0  0  0  0  0  0  0  0  0  0  0
    3.0576   -3.4811    0.0000 N   0  0  0  0  0  0  0  0  0  0  0  0
    4.5436   -3.2769    0.0000 C   0  0  0  0  0  0  0  0  0  0  0  0
    5.1097   -1.8878    0.0000 C   0  0  0  0  0  0  0  0  0  0  0  0
    6.5958   -1.6836    0.0000 C   0  0  0  0  0  0  0  0  0  0  0  0
    7.1619   -0.2945    0.0000 N   0  0  0  0  0  0  0  0  0  0  0  0
    6.2420    0.8903    0.0000 C   0  0  0  0  0  0  0  0  0  0  0  0
    4.7560    0.6861    0.0000 C   0  0  0  0  0  0  0  0  0  0  0  0
    4.1898   -0.7030    0.0000 C   0  0  0  0  0  0  0  0  0  0  0  0
    6.8082    2.2794    0.0000 N   0  0  0  0  0  0  0  0  0  0  0  0
    6.0172    3.5539    0.0000 N   0  0  0  0  0  0  0  0  0  0  0  0
    6.9849    4.7000    0.0000 C   0  0  0  0  0  0  0  0  0  0  0  0
    8.3739    4.1338    0.0000 C   0  0  0  0  0  0  0  0  0  0  0  0
    8.2647    2.6378    0.0000 C   0  0  0  0  0  0  0  0  0  0  0  0
    9.6484    4.9248    0.0000 F   0  0  0  0  0  0  0  0  0  0  0  0
    5.4635   -4.4617    0.0000 C   0  0  0  0  0  0  0  0  0  0  0  0
  1  2  1  0
  2  3  1  0
  3  4  1  0
  4  5  2  0
  5  6  1  0
  5  7  1  0
  7  8  1  0
  8  9  2  0
  9 10  1  0
 10 11  2  0
 11 12  1  0
 12 13  2  0
 12 14  1  0
 15 10  1  6
 15 16  1  0
 16 17  1  0
 17 18  1  0
 18 19  1  0
 19 20  1  0
 18 21  1  1
 21 22  1  0
 18 23  1  0
 23 24  2  0
 23 25  1  0
 25 26  1  0
 26 27  1  0
 27 28  2  0
 28 29  1  0
 29 30  2  0
 30 31  1  0
 31 32  2  0
 30 33  1  0
 33 34  1  0
 34 35  2  0
 35 36  1  0
 36 37  2  0
 36 38  1  0
 26 39  1  6
  6  2  2  0
 13  8  1  0
 20 15  1  0
 32 27  1  0
 37 33  1  0
M  END
>  <BrandName>  (404) 
Gavreto

>  <Applicants>  (404) 
Blueprint Medicines

>  <CHEMBL_ID>  (404) 
CHEMBL4582651

>  <Canonical_Smiles>  (404) 
Cc1[nH]nc(c1)Nc2nc(nc(c2)C)[C@H]3CC[C@@](CC3)(OC)C(=O)N[C@H](c4cnc(cc4)n5ncc(c5)F)C

>  <Chirality>  (404) 
Single Stereoisomer

>  <First_Approval>  (404) 
2020

>  <Phase>  (404) 
4.0

>  <SC_Patent>  (404) 
US-10030005-B2

>  <Synonyms>  (404) 
PRALSETINIB ETC.|GAVRETO|BLU-667|BLU-123244|RO7499790|RG6396|GAVRETO (US|X-581238|X581238|BLU123244

>  <Withdrawn>  (404) 
{''}

>  <Indications>  (404) 
Pralsetinib, also known as BLU-667, is a highly potent, selective, next generation RET inhibitor. BLU-667 is a potent and selective inhibitor of RET mutations, fusions, and predicted resistant mutants. RET fusions are key drivers of multiple cancers, including lung and thyroid cancer, and our research suggests that RET also plays a key role in some colon and breast cancers. By simultaneously targeting the primary driver and predicted resistant mutants that render cancer cells insensitive to treatment with currently approved drugs

>  <Type>  (404) 
nan

>  <targets_id>  (404) 
nan

>  <Inchi>  (404) 
InChI=1S/C27H32FN9O2/c1-16-11-22(33-23-12-17(2)35-36-23)34-25(31-16)19-7-9-27(39-4,10-8-19)26(38)32-18(3)20-5-6-24(29-13-20)37-15-21(28)14-30-37/h5-6,11-15,18-19H,7-10H2,1-4H3,(H,32,38)(H2,31,33,34,35,36)/t18-,19-,27+/m0/s1

>  <stdInchikey>  (404) 
GBLBJPZSROAGMF-BATDWUPUSA-N

>  <csid>  (404) 
71060332

>  <Links>  (404) 
|http://www.chemspider.com/Chemical-Structure.71060332.html|https://www.ebi.ac.uk/chembldb/compound/inspect/CHEMBL4297597|https://www.rcsb.org/ligand/Q4J|https://www.ebi.ac.uk/pdbe-srv/pdbechem/chemicalCompound/show/Q4J|https://precision.fda.gov/uniisearch/srs/unii/1WPE73O1WV

>  <LinkName>  (404) 
|ChemSpider|ChEMBL|RCSB|PDBe|FDA SRS

>  <lig_pdb_ID>  (404) 
Q4J

>  <pdb_IDs>  (404) 
7du9 7ju5

>  <indicationDB>  (404) 


>  <uniprotId>  (404) 


>  <indicationG2P>  (404) 


>  <MW>  (404) 
533.3

>  <HBA>  (404) 
9

>  <HBD>  (404) 
3

>  <NRB>  (404) 
8

>  <TPSA>  (404) 
135.5

>  <LogP>  (404) 
4.2

>  <RoF>  (404) 
1

>  <Melting point>  (404) 
nan

>  <Targets>  (404) 
nan

>  <Kinase families>  (404) 


>  <FDA_approved>  (404) 
Y

$$$$
Sorafenib
     RDKit          2D

 32 34  0  0  0  0  0  0  0  0999 V2000
  -11.0580   -0.4218    0.0000 C   0  0  0  0  0  0  0  0  0  0  0  0
   -9.5714   -0.2220    0.0000 N   0  0  0  0  0  0  0  0  0  0  0  0
   -8.6550   -1.4095    0.0000 C   0  0  0  0  0  0  0  0  0  0  0  0
   -9.2252   -2.7969    0.0000 O   0  0  0  0  0  0  0  0  0  0  0  0
   -7.1684   -1.2096    0.0000 C   0  0  0  0  0  0  0  0  0  0  0  0
   -6.5982    0.1778    0.0000 C   0  0  0  0  0  0  0  0  0  0  0  0
   -5.1115    0.3777    0.0000 C   0  0  0  0  0  0  0  0  0  0  0  0
   -4.1951   -0.8098    0.0000 C   0  0  0  0  0  0  0  0  0  0  0  0
   -4.7653   -2.1972    0.0000 C   0  0  0  0  0  0  0  0  0  0  0  0
   -6.2520   -2.3971    0.0000 N   0  0  0  0  0  0  0  0  0  0  0  0
   -4.5413    1.7651    0.0000 O   0  0  0  0  0  0  0  0  0  0  0  0
   -3.0547    1.9650    0.0000 C   0  0  0  0  0  0  0  0  0  0  0  0
   -2.1383    0.7775    0.0000 C   0  0  0  0  0  0  0  0  0  0  0  0
   -0.6517    0.9773    0.0000 C   0  0  0  0  0  0  0  0  0  0  0  0
   -0.0815    2.3647    0.0000 C   0  0  0  0  0  0  0  0  0  0  0  0
   -0.9979    3.5523    0.0000 C   0  0  0  0  0  0  0  0  0  0  0  0
   -2.4845    3.3524    0.0000 C   0  0  0  0  0  0  0  0  0  0  0  0
    1.4052    2.5646    0.0000 N   0  0  0  0  0  0  0  0  0  0  0  0
    2.3216    1.3771    0.0000 C   0  0  0  0  0  0  0  0  0  0  0  0
    1.7514   -0.0103    0.0000 O   0  0  0  0  0  0  0  0  0  0  0  0
    3.8082    1.5770    0.0000 N   0  0  0  0  0  0  0  0  0  0  0  0
    4.7246    0.3895    0.0000 C   0  0  0  0  0  0  0  0  0  0  0  0
    4.1544   -0.9979    0.0000 C   0  0  0  0  0  0  0  0  0  0  0  0
    5.0708   -2.1854    0.0000 C   0  0  0  0  0  0  0  0  0  0  0  0
    6.5574   -1.9855    0.0000 C   0  0  0  0  0  0  0  0  0  0  0  0
    7.1276   -0.5981    0.0000 C   0  0  0  0  0  0  0  0  0  0  0  0
    6.2112    0.5894    0.0000 C   0  0  0  0  0  0  0  0  0  0  0  0
    8.6143   -0.3983    0.0000 C   0  0  0  0  0  0  0  0  0  0  0  0
   10.1009   -0.1984    0.0000 F   0  0  0  0  0  0  0  0  0  0  0  0
    8.4144    1.0884    0.0000 F   0  0  0  0  0  0  0  0  0  0  0  0
    8.8142   -1.8849    0.0000 F   0  0  0  0  0  0  0  0  0  0  0  0
    7.4739   -3.1730    0.0000 Cl  0  0  0  0  0  0  0  0  0  0  0  0
  1  2  1  0
  2  3  1  0
  3  4  2  0
  3  5  1  0
  5  6  2  0
  6  7  1  0
  7  8  2  0
  8  9  1  0
  9 10  2  0
  7 11  1  0
 11 12  1  0
 12 13  2  0
 13 14  1  0
 14 15  2  0
 15 16  1  0
 16 17  2  0
 15 18  1  0
 18 19  1  0
 19 20  2  0
 19 21  1  0
 21 22  1  0
 22 23  2  0
 23 24  1  0
 24 25  2  0
 25 26  1  0
 26 27  2  0
 26 28  1  0
 28 29  1  0
 28 30  1  0
 28 31  1  0
 25 32  1  0
 10  5  1  0
 17 12  1  0
 27 22  1  0
M  END
>  <BrandName>  (405) 
Nexavar

>  <Applicants>  (405) 
Bayer

>  <CHEMBL_ID>  (405) 
CHEMBL1336

>  <Canonical_Smiles>  (405) 
CNC(=O)c1cc(ccn1)Oc2ccc(cc2)NC(=O)Nc3ccc(c(c3)C(F)(F)F)Cl

>  <Chirality>  (405) 
Achiral Molecule

>  <First_Approval>  (405) 
2005

>  <Phase>  (405) 
4.0

>  <SC_Patent>  (405) 
US-8618141-B2

>  <Synonyms>  (405) 
BAY 43-9006 | BAY-43-9006 | NEXAVAR | SORAFENIB

>  <Withdrawn>  (405) 
{'', 'Study NCT02691780 in Korea, Republic of was Withdrawn during NA because not enrolled', 'Study NCT00627835 in Canada was Withdrawn during PHASE1 because Site decided not to open this study', "Study NCT04465734 in China was Withdrawn during PHASE3 because The trial used sorafenib as a control drug It's not suitable now(after the A+T has been approved)The sponsor terminated the trial", 'Study NCT02227914 in United States was Withdrawn during PHASE1 because Study stopped due to administrative reasons', 'Study NCT01441388 in unknown country was Withdrawn during PHASE1 because Business/Operational issues', 'Study NCT01801163 in United States was Withdrawn during PHASE1 because Trial had no patients accrued while open', 'Study NCT03563170 in United States was Withdrawn during PHASE1 because Enrollment not initiated', 'Study NCT02908165 in United States was Withdrawn during PHASE2 because A future study will be taking place using the same patient population', 'Study NCT00808145 in United States was Withdrawn during PHASE2 because Lack of enrollment, many screen failures and non eligible study participants', 'Study NCT01618253 in United States was Withdrawn during PHASE1 because Closed due to poor accrual', 'Study NCT02599090 in unknown country was Withdrawn during PHASE2 because Multi phase study did not progress to Phase II Phase I registered as NCT00734526', 'Study NCT00547443 in United States was Withdrawn during PHASE1 because Withdrawn as the sponsor has stopped the drug for NSCLC population', 'Study NCT01736878 in Germany was Withdrawn during PHASE2 because Study was withdrawn due to unanticipated hassle in patient recruitment', 'Study NCT02129322 in China was Withdrawn during PHASE2 because patients not enrolled', 'Study NCT02747537 in unknown country was Withdrawn during PHASE2 because Could not recruit participants for the study', 'Study NCT01851408 in unknown country was Withdrawn during PHASE2 because No progression of Phase 1 trial to Phase 2', 'Study NCT02288507 in United States was Withdrawn during PHASE1 because Closed due to no accrual', 'Study NCT02989870 in United States was Withdrawn during PHASE1 because No Interest Investigator was unable to enroll any participants on study', 'Study NCT03780634 in China was Withdrawn during PHASE2 because No participants enrolled', 'Study NCT03722498 in China was Withdrawn during PHASE2 because No patients join'}

>  <Indications>  (405) 
Sorafenib is indicated for the treatment of unresectable hepatocellular carcinoma and advanced renal cell carcinoma.

>  <Type>  (405) 
2

>  <targets_id>  (405) 
P15056|P04049|P35916|P35968|P36888|P09619|P10721|P11362|P07949|P17948

>  <Inchi>  (405) 
InChI=1S/C21H16ClF3N4O3/c1-26-19(30)18-11-15(8-9-27-18)32-14-5-2-12(3-6-14)28-20(31)29-13-4-7-17(22)16(10-13)21(23,24)25/h2-11H,1H3,(H,26,30)(H2,28,29,31)

>  <stdInchikey>  (405) 
MLDQJTXFUGDVEO-UHFFFAOYSA-N

>  <csid>  (405) 
187440

>  <Links>  (405) 
|http://www.chemspider.com/Chemical-Structure.187440.html|https://www.ebi.ac.uk/chembldb/compound/inspect/CHEMBL1336|https://pubchem.ncbi.nlm.nih.gov/compound/216239|https://go.drugbank.com/drugs/DB00398|https://www.rcsb.org/ligand/BAX|https://www.ebi.ac.uk/pdbe-srv/pdbechem/chemicalCompound/show/BAX|https://www.guidetopharmacology.org/GRAC/LigandDisplayForward?5711|https://zinc15.docking.org/substances/ZINC000001493878|https://precision.fda.gov/uniisearch/srs/unii/9ZOQ3TZI87|https://www.bindingdb.org/bind/chemsearch/marvin/MolStructure.jsp?monomerid=16673

>  <LinkName>  (405) 
|ChemSpider|ChEMBL|PubChem|DrugBank|RCSB|PDBe|Guide to Pharmacology|ZINC|FDA SRS|BindingDB

>  <lig_pdb_ID>  (405) 
BAX

>  <pdb_IDs>  (405) 
1uwh 1uwj 3gcs 3heg 3rgf 3wze 4asd 5hi2

>  <indicationDB>  (405) 


>  <uniprotId>  (405) 


>  <indicationG2P>  (405) 
None

>  <MW>  (405) 
464.1

>  <HBA>  (405) 
4

>  <HBD>  (405) 
3

>  <NRB>  (405) 
5

>  <TPSA>  (405) 
92.3

>  <LogP>  (405) 
5.5

>  <RoF>  (405) 
1

>  <Melting point>  (405) 
187-226

>  <Targets>  (405) 
BRAF; RAF1; FLT4; KDR; FLT3; PDGFRB; KIT; FGFR1; RET; FLT1

>  <Kinase families>  (405) 
Tyr<br>TKL

>  <FDA_approved>  (405) 
Y

$$$$
Pemigatinib
     RDKit          2D

 35 39  0  0  0  0  0  0  0  0999 V2000
    0.1591   -3.8085    0.0000 C   0  0  0  0  0  0  0  0  0  0  0  0
   -0.6192   -2.5262    0.0000 C   0  0  0  0  0  0  0  0  0  0  0  0
    0.1021   -1.2110    0.0000 N   0  0  0  0  0  0  0  0  0  0  0  0
   -0.6762    0.0713    0.0000 C   0  0  0  0  0  0  0  0  0  0  0  0
   -2.1758    0.0384    0.0000 C   0  0  0  0  0  0  0  0  0  0  0  0
   -3.1548   -1.0981    0.0000 C   0  0  0  0  0  0  0  0  0  0  0  0
   -4.5382   -0.5182    0.0000 C   0  0  0  0  0  0  0  0  0  0  0  0
   -4.4141    0.9767    0.0000 N   0  0  0  0  0  0  0  0  0  0  0  0
   -2.9541    1.3207    0.0000 C   0  0  0  0  0  0  0  0  0  0  0  0
   -2.2328    2.6358    0.0000 N   0  0  0  0  0  0  0  0  0  0  0  0
   -0.7331    2.6687    0.0000 C   0  0  0  0  0  0  0  0  0  0  0  0
    0.0452    1.3864    0.0000 C   0  0  0  0  0  0  0  0  0  0  0  0
    1.5448    1.4193    0.0000 C   0  0  0  0  0  0  0  0  0  0  0  0
    2.3231    0.1370    0.0000 N   0  0  0  0  0  0  0  0  0  0  0  0
    1.6018   -1.1781    0.0000 C   0  0  0  0  0  0  0  0  0  0  0  0
    2.3801   -2.4604    0.0000 O   0  0  0  0  0  0  0  0  0  0  0  0
    3.8228    0.1699    0.0000 C   0  0  0  0  0  0  0  0  0  0  0  0
    4.6011   -1.1124    0.0000 C   0  0  0  0  0  0  0  0  0  0  0  0
    6.1007   -1.0795    0.0000 C   0  0  0  0  0  0  0  0  0  0  0  0
    6.8220    0.2357    0.0000 C   0  0  0  0  0  0  0  0  0  0  0  0
    6.0437    1.5180    0.0000 C   0  0  0  0  0  0  0  0  0  0  0  0
    4.5441    1.4851    0.0000 C   0  0  0  0  0  0  0  0  0  0  0  0
    3.7658    2.7674    0.0000 F   0  0  0  0  0  0  0  0  0  0  0  0
    6.7651    2.8331    0.0000 O   0  0  0  0  0  0  0  0  0  0  0  0
    8.2647    2.8660    0.0000 C   0  0  0  0  0  0  0  0  0  0  0  0
    6.8790   -2.3618    0.0000 O   0  0  0  0  0  0  0  0  0  0  0  0
    8.3786   -2.3289    0.0000 C   0  0  0  0  0  0  0  0  0  0  0  0
    3.8797   -2.4275    0.0000 F   0  0  0  0  0  0  0  0  0  0  0  0
   -5.8205   -1.2965    0.0000 C   0  0  0  0  0  0  0  0  0  0  0  0
   -7.1356   -0.5751    0.0000 N   0  0  0  0  0  0  0  0  0  0  0  0
   -7.1685    0.9245    0.0000 C   0  0  0  0  0  0  0  0  0  0  0  0
   -8.4837    1.6459    0.0000 C   0  0  0  0  0  0  0  0  0  0  0  0
   -9.7660    0.8676    0.0000 O   0  0  0  0  0  0  0  0  0  0  0  0
   -9.7331   -0.6321    0.0000 C   0  0  0  0  0  0  0  0  0  0  0  0
   -8.4179   -1.3534    0.0000 C   0  0  0  0  0  0  0  0  0  0  0  0
  1  2  1  0
  2  3  1  0
  3  4  1  0
  4  5  2  0
  5  6  1  0
  6  7  2  0
  7  8  1  0
  8  9  1  0
  9 10  2  0
 10 11  1  0
 11 12  2  0
 12 13  1  0
 13 14  1  0
 14 15  1  0
 15 16  2  0
 14 17  1  0
 17 18  2  0
 18 19  1  0
 19 20  2  0
 20 21  1  0
 21 22  2  0
 22 23  1  0
 21 24  1  0
 24 25  1  0
 19 26  1  0
 26 27  1  0
 18 28  1  0
  7 29  1  0
 29 30  1  0
 30 31  1  0
 31 32  1  0
 32 33  1  0
 33 34  1  0
 34 35  1  0
 15  3  1  0
 12  4  1  0
  9  5  1  0
 22 17  1  0
 35 30  1  0
M  END
>  <BrandName>  (406) 
Pemazyre

>  <Applicants>  (406) 
Incyte Corporation

>  <CHEMBL_ID>  (406) 
CHEMBL4297522

>  <Canonical_Smiles>  (406) 
CCN1c2c3cc([nH]c3ncc2CN(C1=O)c4c(c(cc(c4F)OC)OC)F)CN5CCOCC5

>  <Chirality>  (406) 
Achiral Molecule

>  <First_Approval>  (406) 
2020

>  <Phase>  (406) 
4.0

>  <SC_Patent>  (406) 
US-9611267-B2

>  <Synonyms>  (406) 
FGFR INHIBITOR INCB054828 | INCB-054828 | INCB054828 | PEMAZYRE | PEMIGATINIB

>  <Withdrawn>  (406) 
{''}

>  <Indications>  (406) 
On April 2020, FDA approved pemigatinib to treat certain patients with cholangiocarcinoma, a rare form of cancer that forms in bile ducts.

>  <Type>  (406) 
nan

>  <targets_id>  (406) 
nan

>  <Inchi>  (406) 
InChI=1S/C24H27F2N5O4/c1-4-30-21-14(11-27-23-16(21)9-15(28-23)13-29-5-7-35-8-6-29)12-31(24(30)32)22-19(25)17(33-2)10-18(34-3)20(22)26/h9-11H,4-8,12-13H2,1-3H3,(H,27,28)

>  <stdInchikey>  (406) 
HCDMJFOHIXMBOV-UHFFFAOYSA-N

>  <csid>  (406) 
68007304

>  <Links>  (406) 
|http://www.chemspider.com/Chemical-Structure.68007304.html|https://www.ebi.ac.uk/chembldb/compound/inspect/CHEMBL4297522|https://pubchem.ncbi.nlm.nih.gov/compound/86705695|https://go.drugbank.com/drugs/DB15102|https://www.rcsb.org/ligand/8ZF|https://www.ebi.ac.uk/pdbe-srv/pdbechem/chemicalCompound/show/8ZF|https://www.guidetopharmacology.org/GRAC/LigandDisplayForward?9767|https://precision.fda.gov/uniisearch/srs/unii/Y6BX7BL23K|https://www.bindingdb.org/bind/chemsearch/marvin/MolStructure.jsp?monomerid=301310

>  <LinkName>  (406) 
|ChemSpider|ChEMBL|PubChem|DrugBank|RCSB|PDBe|Guide to Pharmacology|FDA SRS|BindingDB

>  <lig_pdb_ID>  (406) 
8ZF

>  <pdb_IDs>  (406) 
7wcl

>  <indicationDB>  (406) 


>  <uniprotId>  (406) 


>  <indicationG2P>  (406) 
None

>  <MW>  (406) 
487.2

>  <HBA>  (406) 
6

>  <HBD>  (406) 
1

>  <NRB>  (406) 
6

>  <TPSA>  (406) 
83.2

>  <LogP>  (406) 
3.7

>  <RoF>  (406) 
0

>  <Melting point>  (406) 
nan

>  <Targets>  (406) 
nan

>  <Kinase families>  (406) 


>  <FDA_approved>  (406) 
Y

$$$$
Pazopanib
     RDKit          2D

 31 34  0  0  0  0  0  0  0  0999 V2000
   -5.8587    3.1697    0.0000 C   0  0  0  0  0  0  0  0  0  0  0  0
   -5.1790    1.8325    0.0000 C   0  0  0  0  0  0  0  0  0  0  0  0
   -3.6812    1.7526    0.0000 C   0  0  0  0  0  0  0  0  0  0  0  0
   -3.0015    0.4154    0.0000 C   0  0  0  0  0  0  0  0  0  0  0  0
   -3.8197   -0.8418    0.0000 C   0  0  0  0  0  0  0  0  0  0  0  0
   -5.3175   -0.7619    0.0000 C   0  0  0  0  0  0  0  0  0  0  0  0
   -5.9972    0.5753    0.0000 C   0  0  0  0  0  0  0  0  0  0  0  0
   -7.4951    0.6553    0.0000 S   0  0  0  0  0  0  0  0  0  0  0  0
   -7.5750   -0.8426    0.0000 O   0  0  0  0  0  0  0  0  0  0  0  0
   -7.4151    2.1531    0.0000 O   0  0  0  0  0  0  0  0  0  0  0  0
   -8.9929    0.7352    0.0000 N   0  0  0  0  0  0  0  0  0  0  0  0
   -3.1400   -2.1790    0.0000 N   0  0  0  0  0  0  0  0  0  0  0  0
   -1.6421   -2.2590    0.0000 C   0  0  0  0  0  0  0  0  0  0  0  0
   -0.9624   -3.5961    0.0000 N   0  0  0  0  0  0  0  0  0  0  0  0
    0.5354   -3.6761    0.0000 C   0  0  0  0  0  0  0  0  0  0  0  0
    1.3536   -2.4189    0.0000 C   0  0  0  0  0  0  0  0  0  0  0  0
    0.6739   -1.0817    0.0000 C   0  0  0  0  0  0  0  0  0  0  0  0
   -0.8239   -1.0018    0.0000 N   0  0  0  0  0  0  0  0  0  0  0  0
    1.4921    0.1755    0.0000 N   0  0  0  0  0  0  0  0  0  0  0  0
    0.8124    1.5127    0.0000 C   0  0  0  0  0  0  0  0  0  0  0  0
    2.9900    0.0955    0.0000 C   0  0  0  0  0  0  0  0  0  0  0  0
    3.6697   -1.2417    0.0000 C   0  0  0  0  0  0  0  0  0  0  0  0
    5.1675   -1.3216    0.0000 C   0  0  0  0  0  0  0  0  0  0  0  0
    5.9857   -0.0644    0.0000 C   0  0  0  0  0  0  0  0  0  0  0  0
    7.4675    0.1688    0.0000 C   0  0  0  0  0  0  0  0  0  0  0  0
    7.7036    1.6501    0.0000 N   0  0  0  0  0  0  0  0  0  0  0  0
    6.3677    2.3324    0.0000 N   0  0  0  0  0  0  0  0  0  0  0  0
    5.3060    1.2728    0.0000 C   0  0  0  0  0  0  0  0  0  0  0  0
    3.8082    1.3527    0.0000 C   0  0  0  0  0  0  0  0  0  0  0  0
    9.0408    2.3298    0.0000 C   0  0  0  0  0  0  0  0  0  0  0  0
    8.5271   -0.8929    0.0000 C   0  0  0  0  0  0  0  0  0  0  0  0
  1  2  1  0
  2  3  2  0
  3  4  1  0
  4  5  2  0
  5  6  1  0
  6  7  2  0
  7  8  1  0
  8  9  2  0
  8 10  2  0
  8 11  1  0
  5 12  1  0
 12 13  1  0
 13 14  2  0
 14 15  1  0
 15 16  2  0
 16 17  1  0
 17 18  2  0
 17 19  1  0
 19 20  1  0
 19 21  1  0
 21 22  1  0
 22 23  2  0
 23 24  1  0
 24 25  2  0
 25 26  1  0
 26 27  1  0
 27 28  2  0
 28 29  1  0
 26 30  1  0
 25 31  1  0
  7  2  1  0
 18 13  1  0
 29 21  2  0
 28 24  1  0
M  END
>  <BrandName>  (407) 
Votrient

>  <Applicants>  (407) 
GlaxoSmithKline

>  <CHEMBL_ID>  (407) 
CHEMBL477772

>  <Canonical_Smiles>  (407) 
Cc1ccc(cc1S(=O)(=O)N)Nc2nccc(n2)N(C)c3ccc4c(n(nc4c3)C)C

>  <Chirality>  (407) 
Achiral Molecule

>  <First_Approval>  (407) 
2009

>  <Phase>  (407) 
4.0

>  <SC_Patent>  (407) 
US-7105530-B2

>  <Synonyms>  (407) 
GW786034 | NSC-752782 | PAZOPANIB | VOTRIENT

>  <Withdrawn>  (407) 
{'', 'Study NCT02342600 in unknown country was Withdrawn during PHASE2 because Supporting company withdrew interest', 'Study NCT03275558 in Hong Kong was Withdrawn during PHASE1 because Study halted prior to enrollment of first participant (It has been determined on 2018 May 15 that the NCT03275558 study will be stopped by sponsor decision)', 'Study NCT00788580 in unknown country was Withdrawn during PHASE1 because Study was discontinued'}

>  <Indications>  (407) 
Treatment of advanced renal cell cancer and advanced soft tissue sarcoma (in patients previously treated with chemotherapy)

>  <Type>  (407) 
1

>  <targets_id>  (407) 
P17948|P35968|P35916|P16234|P09619|P10721|P22607|Q08881|P11362

>  <Inchi>  (407) 
InChI=1S/C21H23N7O2S/c1-13-5-6-15(11-19(13)31(22,29)30)24-21-23-10-9-20(25-21)27(3)16-7-8-17-14(2)28(4)26-18(17)12-16/h5-12H,1-4H3,(H2,22,29,30)(H,23,24,25)

>  <stdInchikey>  (407) 
CUIHSIWYWATEQL-UHFFFAOYSA-N

>  <csid>  (407) 
8289501

>  <Links>  (407) 
|http://www.chemspider.com/Chemical-Structure.8289501.html|https://www.ebi.ac.uk/chembldb/compound/inspect/CHEMBL477772|https://pubchem.ncbi.nlm.nih.gov/compound/10113978|https://go.drugbank.com/drugs/DB06589|https://www.guidetopharmacology.org/GRAC/LigandDisplayForward?5698|https://zinc15.docking.org/substances/ZINC000011617039|https://precision.fda.gov/uniisearch/srs/unii/7RN5DR86CK|https://www.bindingdb.org/bind/chemsearch/marvin/MolStructure.jsp?monomerid=26474

>  <LinkName>  (407) 
|ChemSpider|ChEMBL|PubChem|DrugBank|Guide to Pharmacology|ZINC|FDA SRS|BindingDB

>  <lig_pdb_ID>  (407) 


>  <pdb_IDs>  (407) 


>  <indicationDB>  (407) 


>  <uniprotId>  (407) 


>  <indicationG2P>  (407) 
None

>  <MW>  (407) 
437.2

>  <HBA>  (407) 
8

>  <HBD>  (407) 
2

>  <NRB>  (407) 
5

>  <TPSA>  (407) 
119.0

>  <LogP>  (407) 
3.1

>  <RoF>  (407) 
0

>  <Melting point>  (407) 
nan

>  <Targets>  (407) 
FLT1; KDR; FLT4; PDGFRA; PDGFRB; KIT; FGFR3; ITK; FGFR1

>  <Kinase families>  (407) 
Tyr

>  <FDA_approved>  (407) 
Y

$$$$
Cravacitinib
     RDKit          2D

 31 34  0  0  0  0  0  0  0  0999 V2000
   -2.2968   -6.4514    0.0000 C   0  0  0  0  0  0  0  0  0  0  0  0
   -2.9016   -5.0787    0.0000 N   0  0  0  0  0  0  0  0  0  0  0  0
   -2.0152   -3.8686    0.0000 C   0  0  0  0  0  0  0  0  0  0  0  0
   -0.5240   -4.0312    0.0000 O   0  0  0  0  0  0  0  0  0  0  0  0
   -2.6200   -2.4959    0.0000 C   0  0  0  0  0  0  0  0  0  0  0  0
   -4.1111   -2.3333    0.0000 N   0  0  0  0  0  0  0  0  0  0  0  0
   -4.7159   -0.9606    0.0000 N   0  0  0  0  0  0  0  0  0  0  0  0
   -3.8295    0.2495    0.0000 C   0  0  0  0  0  0  0  0  0  0  0  0
   -4.4342    1.6222    0.0000 N   0  0  0  0  0  0  0  0  0  0  0  0
   -3.5478    2.8322    0.0000 C   0  0  0  0  0  0  0  0  0  0  0  0
   -2.0567    2.6696    0.0000 O   0  0  0  0  0  0  0  0  0  0  0  0
   -4.1526    4.2049    0.0000 C   0  0  0  0  0  0  0  0  0  0  0  0
   -5.3627    5.0913    0.0000 C   0  0  0  0  0  0  0  0  0  0  0  0
   -3.9900    5.6961    0.0000 C   0  0  0  0  0  0  0  0  0  0  0  0
   -2.3383    0.0869    0.0000 C   0  0  0  0  0  0  0  0  0  0  0  0
   -1.7336   -1.2858    0.0000 C   0  0  0  0  0  0  0  0  0  0  0  0
   -0.2424   -1.4484    0.0000 N   0  0  0  0  0  0  0  0  0  0  0  0
    0.6440   -0.2383    0.0000 C   0  0  0  0  0  0  0  0  0  0  0  0
    0.0392    1.1343    0.0000 C   0  0  0  0  0  0  0  0  0  0  0  0
    0.9256    2.3444    0.0000 C   0  0  0  0  0  0  0  0  0  0  0  0
    2.4168    2.1818    0.0000 C   0  0  0  0  0  0  0  0  0  0  0  0
    3.0216    0.8091    0.0000 C   0  0  0  0  0  0  0  0  0  0  0  0
    4.5127    0.6465    0.0000 C   0  0  0  0  0  0  0  0  0  0  0  0
    5.2577   -0.6554    0.0000 N   0  0  0  0  0  0  0  0  0  0  0  0
    6.7261   -0.3492    0.0000 C   0  0  0  0  0  0  0  0  0  0  0  0
    6.8887    1.1419    0.0000 N   0  0  0  0  0  0  0  0  0  0  0  0
    8.1906    1.8868    0.0000 C   0  0  0  0  0  0  0  0  0  0  0  0
    5.5208    1.7573    0.0000 N   0  0  0  0  0  0  0  0  0  0  0  0
    2.1352   -0.4009    0.0000 C   0  0  0  0  0  0  0  0  0  0  0  0
    2.7399   -1.7736    0.0000 O   0  0  0  0  0  0  0  0  0  0  0  0
    1.8535   -2.9837    0.0000 C   0  0  0  0  0  0  0  0  0  0  0  0
  1  2  1  0
  2  3  1  0
  3  4  2  0
  3  5  1  0
  5  6  2  0
  6  7  1  0
  7  8  2  0
  8  9  1  0
  9 10  1  0
 10 11  2  0
 10 12  1  0
 12 13  1  0
 13 14  1  0
  8 15  1  0
 15 16  2  0
 16 17  1  0
 17 18  1  0
 18 19  2  0
 19 20  1  0
 20 21  2  0
 21 22  1  0
 22 23  1  0
 23 24  1  0
 24 25  2  0
 25 26  1  0
 26 27  1  0
 26 28  1  0
 22 29  2  0
 29 30  1  0
 30 31  1  0
 16  5  1  0
 29 18  1  0
 14 12  1  0
 28 23  2  0
M  END
>  <BrandName>  (408) 


>  <Applicants>  (408) 
Bristol Myers Squibb Co

>  <CHEMBL_ID>  (408) 
CHEMBL4596392

>  <Canonical_Smiles>  (408) 
CNC(=O)c1nnc(NC(=O)C2CC2)cc1Nc1cccc(-c2ncn(C)n2)c1OC

>  <Chirality>  (408) 
Achiral Molecule

>  <First_Approval>  (408) 
nan

>  <Phase>  (408) 
4.0

>  <SC_Patent>  (408) 
US-10000480-B2

>  <Synonyms>  (408) 
CRAVACITINIB

>  <Withdrawn>  (408) 
nan

>  <Indications>  (408) 
nan

>  <Type>  (408) 
nan

>  <targets_id>  (408) 
nan

>  <Inchi>  (408) 
InChI=1S/C20H22N8O3/c1-21-20(30)16-14(9-15(25-26-16)24-19(29)11-7-8-11)23-13-6-4-5-12(17(13)31-3)18-22-10-28(2)27-18/h4-6,9-11H,7-8H2,1-3H3,(H,21,30)(H2,23,24,25,29)

>  <stdInchikey>  (408) 
BZZKEPGENYLQSC-UHFFFAOYSA-N

>  <csid>  (408) 
nan

>  <Links>  (408) 
|http://www.chemspider.com/Chemical-Structure.nan.html|https://www.ebi.ac.uk/chembldb/compound/inspect/CHEMBL4596392|https://pubchem.ncbi.nlm.nih.gov/compound/138713709|https://www.rcsb.org/ligand/LB7|https://www.ebi.ac.uk/pdbe-srv/pdbechem/chemicalCompound/show/LB7|https://www.bindingdb.org/bind/chemsearch/marvin/MolStructure.jsp?monomerid=500288

>  <LinkName>  (408) 
|ChemSpider|ChEMBL|PubChem|RCSB|PDBe|BindingDB

>  <lig_pdb_ID>  (408) 
LB7

>  <pdb_IDs>  (408) 
6nzp

>  <indicationDB>  (408) 


>  <uniprotId>  (408) 


>  <indicationG2P>  (408) 


>  <MW>  (408) 
422.2

>  <HBA>  (408) 
9

>  <HBD>  (408) 
3

>  <NRB>  (408) 
7

>  <TPSA>  (408) 
135.9

>  <LogP>  (408) 
1.7

>  <RoF>  (408) 
0

>  <Melting point>  (408) 
nan

>  <Targets>  (408) 
nan

>  <Kinase families>  (408) 


>  <FDA_approved>  (408) 
Y

$$$$
Neratinib
     RDKit          2D

 40 43  0  0  0  0  0  0  0  0999 V2000
    0.1440   -6.2854    0.0000 C   0  0  0  0  0  0  0  0  0  0  0  0
   -0.9188   -5.2269    0.0000 C   0  0  0  0  0  0  0  0  0  0  0  0
   -0.5335   -3.7772    0.0000 O   0  0  0  0  0  0  0  0  0  0  0  0
   -1.5963   -2.7187    0.0000 C   0  0  0  0  0  0  0  0  0  0  0  0
   -3.0444   -3.1098    0.0000 C   0  0  0  0  0  0  0  0  0  0  0  0
   -4.1072   -2.0513    0.0000 C   0  0  0  0  0  0  0  0  0  0  0  0
   -3.7219   -0.6016    0.0000 C   0  0  0  0  0  0  0  0  0  0  0  0
   -2.2738   -0.2105    0.0000 C   0  0  0  0  0  0  0  0  0  0  0  0
   -1.2110   -1.2690    0.0000 C   0  0  0  0  0  0  0  0  0  0  0  0
    0.2371   -0.8779    0.0000 N   0  0  0  0  0  0  0  0  0  0  0  0
    1.2999   -1.9364    0.0000 C   0  0  0  0  0  0  0  0  0  0  0  0
    0.9146   -3.3861    0.0000 O   0  0  0  0  0  0  0  0  0  0  0  0
    2.7480   -1.5453    0.0000 C   0  0  0  0  0  0  0  0  0  0  0  0
    3.8108   -2.6038    0.0000 C   0  0  0  0  0  0  0  0  0  0  0  0
    5.2589   -2.2126    0.0000 C   0  0  0  0  0  0  0  0  0  0  0  0
    6.3217   -3.2712    0.0000 N   0  0  0  0  0  0  0  0  0  0  0  0
    7.7698   -2.8800    0.0000 C   0  0  0  0  0  0  0  0  0  0  0  0
    5.9364   -4.7208    0.0000 C   0  0  0  0  0  0  0  0  0  0  0  0
   -4.7847    0.4569    0.0000 C   0  0  0  0  0  0  0  0  0  0  0  0
   -6.2328    0.0658    0.0000 C   0  0  0  0  0  0  0  0  0  0  0  0
   -6.6181   -1.3839    0.0000 C   0  0  0  0  0  0  0  0  0  0  0  0
   -5.5553   -2.4424    0.0000 N   0  0  0  0  0  0  0  0  0  0  0  0
   -7.2956    1.1243    0.0000 C   0  0  0  0  0  0  0  0  0  0  0  0
   -8.3584    2.1828    0.0000 N   0  0  0  0  0  0  0  0  0  0  0  0
   -4.3994    1.9066    0.0000 N   0  0  0  0  0  0  0  0  0  0  0  0
   -2.9513    2.2977    0.0000 C   0  0  0  0  0  0  0  0  0  0  0  0
   -1.8885    1.2392    0.0000 C   0  0  0  0  0  0  0  0  0  0  0  0
   -0.4404    1.6303    0.0000 C   0  0  0  0  0  0  0  0  0  0  0  0
   -0.0550    3.0800    0.0000 C   0  0  0  0  0  0  0  0  0  0  0  0
   -1.1178    4.1385    0.0000 C   0  0  0  0  0  0  0  0  0  0  0  0
   -2.5659    3.7474    0.0000 C   0  0  0  0  0  0  0  0  0  0  0  0
   -0.7325    5.5882    0.0000 Cl  0  0  0  0  0  0  0  0  0  0  0  0
    1.3931    3.4711    0.0000 O   0  0  0  0  0  0  0  0  0  0  0  0
    2.4559    2.4126    0.0000 C   0  0  0  0  0  0  0  0  0  0  0  0
    3.9040    2.8037    0.0000 C   0  0  0  0  0  0  0  0  0  0  0  0
    4.9667    1.7452    0.0000 C   0  0  0  0  0  0  0  0  0  0  0  0
    6.4149    2.1364    0.0000 C   0  0  0  0  0  0  0  0  0  0  0  0
    6.8002    3.5860    0.0000 C   0  0  0  0  0  0  0  0  0  0  0  0
    5.7374    4.6446    0.0000 C   0  0  0  0  0  0  0  0  0  0  0  0
    4.2893    4.2534    0.0000 N   0  0  0  0  0  0  0  0  0  0  0  0
  1  2  1  0
  2  3  1  0
  3  4  1  0
  4  5  2  0
  5  6  1  0
  6  7  2  0
  7  8  1  0
  8  9  2  0
  9 10  1  0
 10 11  1  0
 11 12  2  0
 11 13  1  0
 13 14  2  0
 14 15  1  0
 15 16  1  0
 16 17  1  0
 16 18  1  0
  7 19  1  0
 19 20  2  0
 20 21  1  0
 21 22  2  0
 20 23  1  0
 23 24  3  0
 19 25  1  0
 25 26  1  0
 26 27  2  0
 27 28  1  0
 28 29  2  0
 29 30  1  0
 30 31  2  0
 30 32  1  0
 29 33  1  0
 33 34  1  0
 34 35  1  0
 35 36  2  0
 36 37  1  0
 37 38  2  0
 38 39  1  0
 39 40  2  0
  9  4  1  0
 22  6  1  0
 31 26  1  0
 40 35  1  0
M  END
>  <BrandName>  (409) 
Nerlynx

>  <Applicants>  (409) 
Puma Biotechnology

>  <CHEMBL_ID>  (409) 
CHEMBL180022

>  <Canonical_Smiles>  (409) 
CCOc1cc2c(cc1NC(=O)/C=C/CN(C)C)c(c(cn2)C#N)Nc3ccc(c(c3)Cl)OCc4ccccn4

>  <Chirality>  (409) 
Achiral Molecule

>  <First_Approval>  (409) 
2017

>  <Phase>  (409) 
4.0

>  <SC_Patent>  (409) 
US-7399865-B2

>  <Synonyms>  (409) 
CDP-820 | HKI-272 | NERATINIB | WAY-179272

>  <Withdrawn>  (409) 
{'', 'Study NCT04856475 in unknown country was Withdrawn during PHASE2 because Termination of collaboration with PUMA', 'Study NCT00932464 in unknown country was Withdrawn during PHASE1 because Study withdrawn as it no longer is deemed necessary per project status', 'Study NCT04781374 in United States was Withdrawn during PHASE2 because Withdrawal of funding', 'Study NCT01960023 in United States was Withdrawn during PHASE1 because This registry was planned to report on the Phase II portion of the study NSABP decided not to proceed with the Phase II portion of the study'}

>  <Indications>  (409) 
For use as an extended adjuvant treatment in adult patients with early stage HER2-overexpressed/amplified breast cancer, to follow adjuvant trastuzumab-based therapy

>  <Type>  (409) 
nan

>  <targets_id>  (409) 
P04626|P00533

>  <Inchi>  (409) 
InChI=1S/C30H29ClN6O3/c1-4-39-28-16-25-23(15-26(28)36-29(38)9-7-13-37(2)3)30(20(17-32)18-34-25)35-21-10-11-27(24(31)14-21)40-19-22-8-5-6-12-33-22/h5-12,14-16,18H,4,13,19H2,1-3H3,(H,34,35)(H,36,38)/b9-7+

>  <stdInchikey>  (409) 
JWNPDZNEKVCWMY-VQHVLOKHSA-N

>  <csid>  (409) 
8091392

>  <Links>  (409) 
|http://www.chemspider.com/Chemical-Structure.8091392.html|https://www.ebi.ac.uk/chembldb/compound/inspect/CHEMBL180022|https://pubchem.ncbi.nlm.nih.gov/compound/9915743|https://go.drugbank.com/drugs/DB11828|https://www.guidetopharmacology.org/GRAC/LigandDisplayForward?5686|https://zinc15.docking.org/substances/ZINC000003916214|https://precision.fda.gov/uniisearch/srs/unii/JJH94R3PWB|https://www.bindingdb.org/bind/chemsearch/marvin/MolStructure.jsp?monomerid=50161957

>  <LinkName>  (409) 
|ChemSpider|ChEMBL|PubChem|DrugBank|Guide to Pharmacology|ZINC|FDA SRS|BindingDB

>  <lig_pdb_ID>  (409) 


>  <pdb_IDs>  (409) 


>  <indicationDB>  (409) 


>  <uniprotId>  (409) 


>  <indicationG2P>  (409) 
None

>  <MW>  (409) 
556.2

>  <HBA>  (409) 
8

>  <HBD>  (409) 
2

>  <NRB>  (409) 
11

>  <TPSA>  (409) 
112.4

>  <LogP>  (409) 
5.9

>  <RoF>  (409) 
2

>  <Melting point>  (409) 
nan

>  <Targets>  (409) 
ERBB2; EGFR

>  <Kinase families>  (409) 
Tyr

>  <FDA_approved>  (409) 
Y

$$$$
Nilotinib
     RDKit          2D

 39 43  0  0  0  0  0  0  0  0999 V2000
    5.6804   -4.6621    0.0000 C   0  0  0  0  0  0  0  0  0  0  0  0
    4.3180   -4.0345    0.0000 C   0  0  0  0  0  0  0  0  0  0  0  0
    3.0933   -4.9006    0.0000 C   0  0  0  0  0  0  0  0  0  0  0  0
    1.7309   -4.2729    0.0000 C   0  0  0  0  0  0  0  0  0  0  0  0
    1.5932   -2.7793    0.0000 C   0  0  0  0  0  0  0  0  0  0  0  0
    2.8180   -1.9132    0.0000 C   0  0  0  0  0  0  0  0  0  0  0  0
    4.1803   -2.5408    0.0000 C   0  0  0  0  0  0  0  0  0  0  0  0
    5.4051   -1.6748    0.0000 N   0  0  0  0  0  0  0  0  0  0  0  0
    5.2674   -0.1811    0.0000 C   0  0  0  0  0  0  0  0  0  0  0  0
    6.4921    0.6849    0.0000 N   0  0  0  0  0  0  0  0  0  0  0  0
    6.3545    2.1786    0.0000 C   0  0  0  0  0  0  0  0  0  0  0  0
    4.9921    2.8062    0.0000 C   0  0  0  0  0  0  0  0  0  0  0  0
    3.7674    1.9402    0.0000 C   0  0  0  0  0  0  0  0  0  0  0  0
    3.9050    0.4465    0.0000 N   0  0  0  0  0  0  0  0  0  0  0  0
    2.4050    2.5678    0.0000 C   0  0  0  0  0  0  0  0  0  0  0  0
    2.2673    4.0615    0.0000 C   0  0  0  0  0  0  0  0  0  0  0  0
    0.9050    4.6891    0.0000 C   0  0  0  0  0  0  0  0  0  0  0  0
   -0.3198    3.8230    0.0000 C   0  0  0  0  0  0  0  0  0  0  0  0
   -0.1821    2.3294    0.0000 N   0  0  0  0  0  0  0  0  0  0  0  0
    1.1803    1.7017    0.0000 C   0  0  0  0  0  0  0  0  0  0  0  0
    0.2308   -2.1516    0.0000 C   0  0  0  0  0  0  0  0  0  0  0  0
   -0.9939   -3.0177    0.0000 O   0  0  0  0  0  0  0  0  0  0  0  0
    0.0932   -0.6580    0.0000 N   0  0  0  0  0  0  0  0  0  0  0  0
   -1.2692   -0.0303    0.0000 C   0  0  0  0  0  0  0  0  0  0  0  0
   -1.4069    1.4633    0.0000 C   0  0  0  0  0  0  0  0  0  0  0  0
   -2.7692    2.0909    0.0000 C   0  0  0  0  0  0  0  0  0  0  0  0
   -3.9940    1.2249    0.0000 C   0  0  0  0  0  0  0  0  0  0  0  0
   -3.8563   -0.2688    0.0000 C   0  0  0  0  0  0  0  0  0  0  0  0
   -2.4939   -0.8964    0.0000 C   0  0  0  0  0  0  0  0  0  0  0  0
   -5.0810   -1.1348    0.0000 N   0  0  0  0  0  0  0  0  0  0  0  0
   -5.1003   -2.6347    0.0000 C   0  0  0  0  0  0  0  0  0  0  0  0
   -6.5327   -3.0799    0.0000 C   0  0  0  0  0  0  0  0  0  0  0  0
   -7.3987   -1.8552    0.0000 N   0  0  0  0  0  0  0  0  0  0  0  0
   -6.5016   -0.6530    0.0000 C   0  0  0  0  0  0  0  0  0  0  0  0
   -7.0145   -4.5004    0.0000 C   0  0  0  0  0  0  0  0  0  0  0  0
   -2.9069    3.5846    0.0000 C   0  0  0  0  0  0  0  0  0  0  0  0
   -3.0445    5.0783    0.0000 F   0  0  0  0  0  0  0  0  0  0  0  0
   -4.4006    3.4470    0.0000 F   0  0  0  0  0  0  0  0  0  0  0  0
   -1.4132    3.7223    0.0000 F   0  0  0  0  0  0  0  0  0  0  0  0
  1  2  1  0
  2  3  2  0
  3  4  1  0
  4  5  2  0
  5  6  1  0
  6  7  2  0
  7  8  1  0
  8  9  1  0
  9 10  2  0
 10 11  1  0
 11 12  2  0
 12 13  1  0
 13 14  2  0
 13 15  1  0
 15 16  2  0
 16 17  1  0
 17 18  2  0
 18 19  1  0
 19 20  2  0
  5 21  1  0
 21 22  2  0
 21 23  1  0
 23 24  1  0
 24 25  2  0
 25 26  1  0
 26 27  2  0
 27 28  1  0
 28 29  2  0
 28 30  1  0
 30 31  1  0
 31 32  2  0
 32 33  1  0
 33 34  2  0
 32 35  1  0
 26 36  1  0
 36 37  1  0
 36 38  1  0
 36 39  1  0
  7  2  1  0
 14  9  1  0
 20 15  1  0
 29 24  1  0
 34 30  1  0
M  END
>  <BrandName>  (410) 
Tasigna

>  <Applicants>  (410) 
Novartis

>  <CHEMBL_ID>  (410) 
CHEMBL255863

>  <Canonical_Smiles>  (410) 
Cc1ccc(cc1Nc2nccc(n2)c3cccnc3)C(=O)Nc4cc(cc(c4)n5cc(nc5)C)C(F)(F)F

>  <Chirality>  (410) 
Achiral Molecule

>  <First_Approval>  (410) 
2007

>  <Phase>  (410) 
4.0

>  <SC_Patent>  (410) 
US-7169791-B2

>  <Synonyms>  (410) 
AMN 107 | AMN-107 | AMN107 | NILOTINIB | NSC-747599

>  <Withdrawn>  (410) 
{'', 'Study NCT02973711 in United States was Withdrawn during PHASE1 because lack of funding', 'Study NCT02774512 in France was Withdrawn during EARLY_PHASE1 because none participant has been enrolled and recruited during the first year after competent autority autorisation', 'Study NCT01670084 in United States was Withdrawn during PHASE2 because No Accrual', 'Study NCT01270893 in unknown country was Withdrawn during PHASE2 because No particapnt recruitment'}

>  <Indications>  (410) 
For the potential treatment of various leukemias, including chronic myeloid leukemia (CML).

>  <Type>  (410) 
2

>  <targets_id>  (410) 
P00519|P10721

>  <Inchi>  (410) 
InChI=1S/C28H22F3N7O/c1-17-5-6-19(10-25(17)37-27-33-9-7-24(36-27)20-4-3-8-32-14-20)26(39)35-22-11-21(28(29,30)31)12-23(13-22)38-15-18(2)34-16-38/h3-16H,1-2H3,(H,35,39)(H,33,36,37)

>  <stdInchikey>  (410) 
HHZIURLSWUIHRB-UHFFFAOYSA-N

>  <csid>  (410) 
559260

>  <Links>  (410) 
|http://www.chemspider.com/Chemical-Structure.559260.html|https://www.ebi.ac.uk/chembldb/compound/inspect/CHEMBL255863|https://pubchem.ncbi.nlm.nih.gov/compound/644241|https://go.drugbank.com/drugs/DB04868|https://www.rcsb.org/ligand/NIL|https://www.ebi.ac.uk/pdbe-srv/pdbechem/chemicalCompound/show/NIL|https://www.guidetopharmacology.org/GRAC/LigandDisplayForward?5697|https://zinc15.docking.org/substances/ZINC000006716957|https://precision.fda.gov/uniisearch/srs/unii/F41401512X|https://www.bindingdb.org/bind/chemsearch/marvin/MolStructure.jsp?monomerid=50237710

>  <LinkName>  (410) 
|ChemSpider|ChEMBL|PubChem|DrugBank|RCSB|PDBe|Guide to Pharmacology|ZINC|FDA SRS|BindingDB

>  <lig_pdb_ID>  (410) 
NIL

>  <pdb_IDs>  (410) 
3cs9 3gp0 5mo4 9cj1

>  <indicationDB>  (410) 


>  <uniprotId>  (410) 


>  <indicationG2P>  (410) 
None

>  <MW>  (410) 
529.2

>  <HBA>  (410) 
7

>  <HBD>  (410) 
2

>  <NRB>  (410) 
6

>  <TPSA>  (410) 
97.6

>  <LogP>  (410) 
6.4

>  <RoF>  (410) 
2

>  <Melting point>  (410) 
nan

>  <Targets>  (410) 
ABL1; KIT

>  <Kinase families>  (410) 
Tyr

>  <FDA_approved>  (410) 
Y

$$$$
Nintedanib
     RDKit          2D

 40 44  0  0  0  0  0  0  0  0999 V2000
   -9.4367   -4.6012    0.0000 C   0  0  0  0  0  0  0  0  0  0  0  0
   -8.7902   -3.2477    0.0000 N   0  0  0  0  0  0  0  0  0  0  0  0
   -9.6391   -2.0110    0.0000 C   0  0  0  0  0  0  0  0  0  0  0  0
   -8.9925   -0.6575    0.0000 C   0  0  0  0  0  0  0  0  0  0  0  0
   -7.4971   -0.5407    0.0000 N   0  0  0  0  0  0  0  0  0  0  0  0
   -6.6482   -1.7774    0.0000 C   0  0  0  0  0  0  0  0  0  0  0  0
   -7.2947   -3.1309    0.0000 C   0  0  0  0  0  0  0  0  0  0  0  0
   -6.8505    0.8128    0.0000 C   0  0  0  0  0  0  0  0  0  0  0  0
   -5.3551    0.9296    0.0000 C   0  0  0  0  0  0  0  0  0  0  0  0
   -4.5062   -0.3071    0.0000 O   0  0  0  0  0  0  0  0  0  0  0  0
   -4.7086    2.2831    0.0000 N   0  0  0  0  0  0  0  0  0  0  0  0
   -5.5574    3.5198    0.0000 C   0  0  0  0  0  0  0  0  0  0  0  0
   -3.2131    2.3999    0.0000 C   0  0  0  0  0  0  0  0  0  0  0  0
   -2.3642    1.1633    0.0000 C   0  0  0  0  0  0  0  0  0  0  0  0
   -0.8688    1.2801    0.0000 C   0  0  0  0  0  0  0  0  0  0  0  0
   -0.2222    2.6336    0.0000 C   0  0  0  0  0  0  0  0  0  0  0  0
   -1.0711    3.8703    0.0000 C   0  0  0  0  0  0  0  0  0  0  0  0
   -2.5666    3.7534    0.0000 C   0  0  0  0  0  0  0  0  0  0  0  0
    1.2732    2.7504    0.0000 N   0  0  0  0  0  0  0  0  0  0  0  0
    2.1221    1.5137    0.0000 C   0  0  0  0  0  0  0  0  0  0  0  0
    3.6176    1.6306    0.0000 C   0  0  0  0  0  0  0  0  0  0  0  0
    4.5911    0.4894    0.0000 C   0  0  0  0  0  0  0  0  0  0  0  0
    4.3944   -0.9977    0.0000 C   0  0  0  0  0  0  0  0  0  0  0  0
    5.5839   -1.9115    0.0000 C   0  0  0  0  0  0  0  0  0  0  0  0
    6.9701   -1.3383    0.0000 C   0  0  0  0  0  0  0  0  0  0  0  0
    7.1667    0.1488    0.0000 C   0  0  0  0  0  0  0  0  0  0  0  0
    5.9772    1.0626    0.0000 C   0  0  0  0  0  0  0  0  0  0  0  0
    5.8604    2.5581    0.0000 N   0  0  0  0  0  0  0  0  0  0  0  0
    4.4020    2.9091    0.0000 C   0  0  0  0  0  0  0  0  0  0  0  0
    3.8288    4.2952    0.0000 O   0  0  0  0  0  0  0  0  0  0  0  0
    8.1596   -2.2521    0.0000 C   0  0  0  0  0  0  0  0  0  0  0  0
    9.5457   -1.6789    0.0000 O   0  0  0  0  0  0  0  0  0  0  0  0
    7.9629   -3.7392    0.0000 O   0  0  0  0  0  0  0  0  0  0  0  0
    9.1524   -4.6530    0.0000 C   0  0  0  0  0  0  0  0  0  0  0  0
    1.4756    0.1602    0.0000 C   0  0  0  0  0  0  0  0  0  0  0  0
   -0.0199    0.0434    0.0000 C   0  0  0  0  0  0  0  0  0  0  0  0
   -0.6664   -1.3101    0.0000 C   0  0  0  0  0  0  0  0  0  0  0  0
    0.1825   -2.5468    0.0000 C   0  0  0  0  0  0  0  0  0  0  0  0
    1.6779   -2.4300    0.0000 C   0  0  0  0  0  0  0  0  0  0  0  0
    2.3245   -1.0764    0.0000 C   0  0  0  0  0  0  0  0  0  0  0  0
  1  2  1  0
  2  3  1  0
  3  4  1  0
  4  5  1  0
  5  6  1  0
  6  7  1  0
  5  8  1  0
  8  9  1  0
  9 10  2  0
  9 11  1  0
 11 12  1  0
 11 13  1  0
 13 14  2  0
 14 15  1  0
 15 16  2  0
 16 17  1  0
 17 18  2  0
 16 19  1  0
 19 20  1  0
 20 21  2  0
 21 22  1  0
 22 23  2  0
 23 24  1  0
 24 25  2  0
 25 26  1  0
 26 27  2  0
 27 28  1  0
 28 29  1  0
 29 30  2  0
 25 31  1  0
 31 32  2  0
 31 33  1  0
 33 34  1  0
 20 35  1  0
 35 36  2  0
 36 37  1  0
 37 38  2  0
 38 39  1  0
 39 40  2  0
  7  2  1  0
 18 13  1  0
 29 21  1  0
 27 22  1  0
 40 35  1  0
M  END
>  <BrandName>  (411) 
Ofev;Vargatef

>  <Applicants>  (411) 
Boehringer Ingelheim

>  <CHEMBL_ID>  (411) 
CHEMBL502835

>  <Canonical_Smiles>  (411) 
CN1CCN(CC1)CC(=O)N(C)c2ccc(cc2)N/C(=C\3/c4ccc(cc4NC3=O)C(=O)OC)/c5ccccc5

>  <Chirality>  (411) 
Achiral Molecule

>  <First_Approval>  (411) 
2014

>  <Phase>  (411) 
4.0

>  <SC_Patent>  (411) 
US-6762180-B1

>  <Synonyms>  (411) 
BIBF 1120 | BIBF-1120 | BIBF1120 | INTEDANIB | NINTEDANIB | OFEV | VARGATEF

>  <Withdrawn>  (411) 
{'', 'Study NCT05067517 in unknown country was Withdrawn during PHASE3 because Unable to enroll any subjects IRB closed study in agreement with PI', 'Study NCT03361319 in unknown country was Withdrawn during PHASE1 because Withdrawal of financial support from funder', 'Study NCT05676112 in unknown country was Withdrawn during unknown phase because Company decision', 'Study NCT02152059 in Canada was Withdrawn during PHASE2 because contract issues'}

>  <Indications>  (411) 
Nintedanib is indicated for the treatment of idiopathic pulmonary fibrosis (IPF).

>  <Type>  (411) 
1

>  <targets_id>  (411) 
P17948|P35968|P35916|P11362|P21802|P22607|P36888|P06239|P07948|P12931

>  <Inchi>  (411) 
InChI=1S/C31H33N5O4/c1-34-15-17-36(18-16-34)20-27(37)35(2)24-12-10-23(11-13-24)32-29(21-7-5-4-6-8-21)28-25-14-9-22(31(39)40-3)19-26(25)33-30(28)38/h4-14,19,32H,15-18,20H2,1-3H3,(H,33,38)/b29-28-

>  <stdInchikey>  (411) 
XZXHXSATPCNXJR-ZIADKAODSA-N

>  <csid>  (411) 
7985471

>  <Links>  (411) 
|http://www.chemspider.com/Chemical-Structure.7985471.html|https://www.ebi.ac.uk/chembldb/compound/inspect/CHEMBL502835|https://go.drugbank.com/drugs/DB09079|https://www.rcsb.org/ligand/XIN|https://www.ebi.ac.uk/pdbe-srv/pdbechem/chemicalCompound/show/XIN|https://www.guidetopharmacology.org/GRAC/LigandDisplayForward?5936|https://zinc15.docking.org/substances/ZINC000100014909|https://precision.fda.gov/uniisearch/srs/unii/G6HRD2P839|https://www.bindingdb.org/bind/chemsearch/marvin/MolStructure.jsp?monomerid=50026612

>  <LinkName>  (411) 
|ChemSpider|ChEMBL|DrugBank|RCSB|PDBe|Guide to Pharmacology|ZINC|FDA SRS|BindingDB

>  <lig_pdb_ID>  (411) 
XIN

>  <pdb_IDs>  (411) 
3c7q 5maf 5te0 6nec

>  <indicationDB>  (411) 


>  <uniprotId>  (411) 


>  <indicationG2P>  (411) 
None

>  <MW>  (411) 
539.3

>  <HBA>  (411) 
7

>  <HBD>  (411) 
2

>  <NRB>  (411) 
7

>  <TPSA>  (411) 
94.2

>  <LogP>  (411) 
3.6

>  <RoF>  (411) 
1

>  <Melting point>  (411) 
nan

>  <Targets>  (411) 
FLT1; KDR; FLT4; FGFR1; FGFR2; FGFR3; FLT3; LCK; LYN; SRC

>  <Kinase families>  (411) 
Tyr

>  <FDA_approved>  (411) 
Y

$$$$
Acalabrutinib
     RDKit          2D

 35 39  0  0  0  0  0  0  0  0999 V2000
    6.3038   -6.4041    0.0000 C   0  0  0  0  0  0  0  0  0  0  0  0
    5.7158   -5.0242    0.0000 C   0  0  0  0  0  0  0  0  0  0  0  0
    5.1277   -3.6443    0.0000 C   0  0  0  0  0  0  0  0  0  0  0  0
    4.5396   -2.2644    0.0000 C   0  0  0  0  0  0  0  0  0  0  0  0
    3.0505   -2.0837    0.0000 O   0  0  0  0  0  0  0  0  0  0  0  0
    5.4406   -1.0652    0.0000 N   0  0  0  0  0  0  0  0  0  0  0  0
    6.9404   -1.0892    0.0000 C   0  0  0  0  0  0  0  0  0  0  0  0
    7.4267    0.3298    0.0000 C   0  0  0  0  0  0  0  0  0  0  0  0
    6.2275    1.2308    0.0000 C   0  0  0  0  0  0  0  0  0  0  0  0
    5.0000    0.3687    0.0000 C   0  0  0  0  0  0  0  0  0  0  0  0
    3.5810    0.8550    0.0000 C   0  0  0  0  0  0  0  0  0  0  0  0
    2.3535   -0.0071    0.0000 N   0  0  0  0  0  0  0  0  0  0  0  0
    1.1543    0.8938    0.0000 C   0  0  0  0  0  0  0  0  0  0  0  0
    1.6406    2.3128    0.0000 C   0  0  0  0  0  0  0  0  0  0  0  0
    3.1404    2.2888    0.0000 N   0  0  0  0  0  0  0  0  0  0  0  0
    3.9111    3.5757    0.0000 C   0  0  0  0  0  0  0  0  0  0  0  0
    3.1820    4.8866    0.0000 C   0  0  0  0  0  0  0  0  0  0  0  0
    1.6822    4.9106    0.0000 N   0  0  0  0  0  0  0  0  0  0  0  0
    0.9115    3.6237    0.0000 C   0  0  0  0  0  0  0  0  0  0  0  0
   -0.5883    3.6477    0.0000 N   0  0  0  0  0  0  0  0  0  0  0  0
   -0.2796    0.4532    0.0000 C   0  0  0  0  0  0  0  0  0  0  0  0
   -1.3781    1.4746    0.0000 C   0  0  0  0  0  0  0  0  0  0  0  0
   -2.8119    1.0340    0.0000 C   0  0  0  0  0  0  0  0  0  0  0  0
   -3.1472   -0.4280    0.0000 C   0  0  0  0  0  0  0  0  0  0  0  0
   -2.0487   -1.4494    0.0000 C   0  0  0  0  0  0  0  0  0  0  0  0
   -0.6149   -1.0088    0.0000 C   0  0  0  0  0  0  0  0  0  0  0  0
   -4.5810   -0.8686    0.0000 C   0  0  0  0  0  0  0  0  0  0  0  0
   -4.9164   -2.3307    0.0000 O   0  0  0  0  0  0  0  0  0  0  0  0
   -5.6795    0.1528    0.0000 N   0  0  0  0  0  0  0  0  0  0  0  0
   -7.1134   -0.2878    0.0000 C   0  0  0  0  0  0  0  0  0  0  0  0
   -8.2119    0.7336    0.0000 C   0  0  0  0  0  0  0  0  0  0  0  0
   -9.6457    0.2930    0.0000 C   0  0  0  0  0  0  0  0  0  0  0  0
   -9.9810   -1.1691    0.0000 C   0  0  0  0  0  0  0  0  0  0  0  0
   -8.8825   -2.1905    0.0000 C   0  0  0  0  0  0  0  0  0  0  0  0
   -7.4487   -1.7499    0.0000 N   0  0  0  0  0  0  0  0  0  0  0  0
  1  2  1  0
  2  3  3  0
  3  4  1  0
  4  5  2  0
  4  6  1  0
  6  7  1  0
  7  8  1  0
  8  9  1  0
  9 10  1  0
 10 11  1  6
 11 12  2  0
 12 13  1  0
 13 14  2  0
 14 15  1  0
 15 16  1  0
 16 17  2  0
 17 18  1  0
 18 19  2  0
 19 20  1  0
 13 21  1  0
 21 22  2  0
 22 23  1  0
 23 24  2  0
 24 25  1  0
 25 26  2  0
 24 27  1  0
 27 28  2  0
 27 29  1  0
 29 30  1  0
 30 31  2  0
 31 32  1  0
 32 33  2  0
 33 34  1  0
 34 35  2  0
 10  6  1  0
 15 11  1  0
 19 14  1  0
 26 21  1  0
 35 30  1  0
M  END
>  <BrandName>  (412) 
Calquence

>  <Applicants>  (412) 
Astrazeneca

>  <CHEMBL_ID>  (412) 
CHEMBL3707348

>  <Canonical_Smiles>  (412) 
CC#CC(=O)N1CCC[C@H]1c2nc(c3n2ccnc3N)c4ccc(cc4)C(=O)Nc5ccccn5

>  <Chirality>  (412) 
Single Stereoisomer

>  <First_Approval>  (412) 
2017

>  <Phase>  (412) 
4.0

>  <SC_Patent>  (412) 
US-7459554-B2

>  <Synonyms>  (412) 
ACALABRUTINIB | ACP-196 | CALQUENCE

>  <Withdrawn>  (412) 
{'', 'Study NCT04685915 in unknown country was Withdrawn during PHASE2 because Bayer is no longer funding due to lack of accrual', 'Study NCT05205252 in United States was Withdrawn during PHASE1 because Epizyme Inc has revised the Tazemetostat development strategy and made the decision to terminate the hematological malignancies basket trial', 'Study NCT04660045 in United States was Withdrawn during PHASE2 because Company supplying drug/funding ceased support', 'Study NCT04836832 in unknown country was Withdrawn during PHASE1 because PI decision', 'Study NCT04961801 in unknown country was Withdrawn during PHASE1 because Manufacturer AstraZeneca withdrew the study due to lack of funding'}

>  <Indications>  (412) 
Acalabrutinib is currently indicated for the treatment of adult patients with Mantle Cell Lymphoma (MCL) who have received at least one prior therapy

>  <Type>  (412) 
nan

>  <targets_id>  (412) 
Q06187

>  <Inchi>  (412) 
InChI=1S/C26H23N7O2/c1-2-6-21(34)32-15-5-7-19(32)25-31-22(23-24(27)29-14-16-33(23)25)17-9-11-18(12-10-17)26(35)30-20-8-3-4-13-28-20/h3-4,8-14,16,19H,5,7,15H2,1H3,(H2,27,29)(H,28,30,35)/t19-/m0/s1

>  <stdInchikey>  (412) 
WDENQIQQYWYTPO-IBGZPJMESA-N

>  <csid>  (412) 
36764951

>  <Links>  (412) 
|http://www.chemspider.com/Chemical-Structure.36764951.html|https://www.ebi.ac.uk/chembldb/compound/inspect/CHEMBL3707348|https://pubchem.ncbi.nlm.nih.gov/compound/71226662|https://go.drugbank.com/drugs/DB11703|https://www.guidetopharmacology.org/GRAC/LigandDisplayForward?8912|https://zinc15.docking.org/substances/ZINC000208774715|https://precision.fda.gov/uniisearch/srs/unii/I42748ELQW|https://www.bindingdb.org/bind/chemsearch/marvin/MolStructure.jsp?monomerid=50175583

>  <LinkName>  (412) 
|ChemSpider|ChEMBL|PubChem|DrugBank|Guide to Pharmacology|ZINC|FDA SRS|BindingDB

>  <lig_pdb_ID>  (412) 


>  <pdb_IDs>  (412) 


>  <indicationDB>  (412) 


>  <uniprotId>  (412) 


>  <indicationG2P>  (412) 
None

>  <MW>  (412) 
465.2

>  <HBA>  (412) 
7

>  <HBD>  (412) 
2

>  <NRB>  (412) 
4

>  <TPSA>  (412) 
118.5

>  <LogP>  (412) 
3.3

>  <RoF>  (412) 
0

>  <Melting point>  (412) 
nan

>  <Targets>  (412) 
BTK

>  <Kinase families>  (412) 
Tyr

>  <FDA_approved>  (412) 
Y

$$$$
Crizotinib
     RDKit          2D

 30 33  0  0  0  0  0  0  0  0999 V2000
    1.1739    0.6682    0.0000 C   0  0  0  0  0  0  0  0  0  0  0  0
    2.5352    0.0383    0.0000 C   0  0  0  0  0  0  0  0  0  0  0  0
    3.7614    0.9022    0.0000 C   0  0  0  0  0  0  0  0  0  0  0  0
    5.1227    0.2723    0.0000 C   0  0  0  0  0  0  0  0  0  0  0  0
    6.3490    1.1362    0.0000 C   0  0  0  0  0  0  0  0  0  0  0  0
    6.2139    2.6301    0.0000 C   0  0  0  0  0  0  0  0  0  0  0  0
    4.8526    3.2601    0.0000 C   0  0  0  0  0  0  0  0  0  0  0  0
    3.6263    2.3961    0.0000 C   0  0  0  0  0  0  0  0  0  0  0  0
    2.2650    3.0261    0.0000 Cl  0  0  0  0  0  0  0  0  0  0  0  0
    4.7175    4.7540    0.0000 F   0  0  0  0  0  0  0  0  0  0  0  0
    5.2578   -1.2216    0.0000 Cl  0  0  0  0  0  0  0  0  0  0  0  0
    2.6703   -1.4556    0.0000 O   0  0  0  0  0  0  0  0  0  0  0  0
    1.4441   -2.3196    0.0000 C   0  0  0  0  0  0  0  0  0  0  0  0
    0.0828   -1.6896    0.0000 C   0  0  0  0  0  0  0  0  0  0  0  0
   -1.1434   -2.5535    0.0000 C   0  0  0  0  0  0  0  0  0  0  0  0
   -1.0083   -4.0474    0.0000 C   0  0  0  0  0  0  0  0  0  0  0  0
    0.3530   -4.6774    0.0000 N   0  0  0  0  0  0  0  0  0  0  0  0
    1.5792   -3.8135    0.0000 C   0  0  0  0  0  0  0  0  0  0  0  0
    2.9405   -4.4434    0.0000 N   0  0  0  0  0  0  0  0  0  0  0  0
   -2.5047   -1.9236    0.0000 C   0  0  0  0  0  0  0  0  0  0  0  0
   -3.8145   -2.6546    0.0000 C   0  0  0  0  0  0  0  0  0  0  0  0
   -4.9145   -1.6348    0.0000 N   0  0  0  0  0  0  0  0  0  0  0  0
   -4.2846   -0.2735    0.0000 N   0  0  0  0  0  0  0  0  0  0  0  0
   -2.7952   -0.4520    0.0000 C   0  0  0  0  0  0  0  0  0  0  0  0
   -5.0156    1.0363    0.0000 C   0  0  0  0  0  0  0  0  0  0  0  0
   -4.2468    2.3243    0.0000 C   0  0  0  0  0  0  0  0  0  0  0  0
   -4.9778    3.6341    0.0000 C   0  0  0  0  0  0  0  0  0  0  0  0
   -6.4777    3.6559    0.0000 N   0  0  0  0  0  0  0  0  0  0  0  0
   -7.2465    2.3679    0.0000 C   0  0  0  0  0  0  0  0  0  0  0  0
   -6.5155    1.0581    0.0000 C   0  0  0  0  0  0  0  0  0  0  0  0
  2  1  1  6
  2  3  1  0
  3  4  2  0
  4  5  1  0
  5  6  2  0
  6  7  1  0
  7  8  2  0
  8  9  1  0
  7 10  1  0
  4 11  1  0
  2 12  1  0
 12 13  1  0
 13 14  2  0
 14 15  1  0
 15 16  2  0
 16 17  1  0
 17 18  2  0
 18 19  1  0
 15 20  1  0
 20 21  1  0
 21 22  2  0
 22 23  1  0
 23 24  1  0
 23 25  1  0
 25 26  1  0
 26 27  1  0
 27 28  1  0
 28 29  1  0
 29 30  1  0
  8  3  1  0
 18 13  1  0
 24 20  2  0
 30 25  1  0
M  END
>  <BrandName>  (413) 
Xalkori

>  <Applicants>  (413) 
Pfizer

>  <CHEMBL_ID>  (413) 
CHEMBL601719

>  <Canonical_Smiles>  (413) 
C[C@H](c1c(ccc(c1Cl)F)Cl)Oc2cc(cnc2N)c3cnn(c3)C4CCNCC4

>  <Chirality>  (413) 
Single Stereoisomer

>  <First_Approval>  (413) 
2011

>  <Phase>  (413) 
4.0

>  <SC_Patent>  (413) 
US-7230098-B2

>  <Synonyms>  (413) 
CRIZOTINIB | NSC-756645 | PF-02341066 | PF-2341066 | XALKORI

>  <Withdrawn>  (413) 
{'', 'Study NCT01441388 in unknown country was Withdrawn during PHASE1 because Business/Operational issues'}

>  <Indications>  (413) 
Crizotinib is used for the treatment of locally advanced or metastatic non-small cell lung cancer (NSCLC) that is anaplastic-lymphoma kinase (ALK)-positive as detected by a FDA-approved test.

>  <Type>  (413) 
1

>  <targets_id>  (413) 
Q9UM73|P08581

>  <Inchi>  (413) 
InChI=1S/C21H22Cl2FN5O/c1-12(19-16(22)2-3-17(24)20(19)23)30-18-8-13(9-27-21(18)25)14-10-28-29(11-14)15-4-6-26-7-5-15/h2-3,8-12,15,26H,4-7H2,1H3,(H2,25,27)/t12-/m1/s1

>  <stdInchikey>  (413) 
KTEIFNKAUNYNJU-GFCCVEGCSA-N

>  <csid>  (413) 
9801307

>  <Links>  (413) 
|http://www.chemspider.com/Chemical-Structure.9801307.html|https://www.ebi.ac.uk/chembldb/compound/inspect/CHEMBL601719|https://pubchem.ncbi.nlm.nih.gov/compound/11626560|https://go.drugbank.com/drugs/DB08865|https://www.rcsb.org/ligand/VGH|https://www.ebi.ac.uk/pdbe-srv/pdbechem/chemicalCompound/show/VGH|https://www.guidetopharmacology.org/GRAC/LigandDisplayForward?4903|https://zinc15.docking.org/substances/ZINC000035902489|https://precision.fda.gov/uniisearch/srs/unii/53AH36668S|https://www.bindingdb.org/bind/chemsearch/marvin/MolStructure.jsp?monomerid=50306682

>  <LinkName>  (413) 
|ChemSpider|ChEMBL|PubChem|DrugBank|RCSB|PDBe|Guide to Pharmacology|ZINC|FDA SRS|BindingDB

>  <lig_pdb_ID>  (413) 
VGH

>  <pdb_IDs>  (413) 
2wgj 2xp2 2yfx 3zbf 4anq 4ans 4c9w 5aaa 5aab 5aac 6imz

>  <indicationDB>  (413) 


>  <uniprotId>  (413) 


>  <indicationG2P>  (413) 
None

>  <MW>  (413) 
449.1

>  <HBA>  (413) 
6

>  <HBD>  (413) 
2

>  <NRB>  (413) 
5

>  <TPSA>  (413) 
78.0

>  <LogP>  (413) 
5.0

>  <RoF>  (413) 
1

>  <Melting point>  (413) 
nan

>  <Targets>  (413) 
ALK; MET

>  <Kinase families>  (413) 
Tyr

>  <FDA_approved>  (413) 
Y

$$$$
Capivasertib
     RDKit          2D

 30 33  0  0  0  0  0  0  0  0999 V2000
    3.1850    1.1141    0.0000 C   0  0  0  0  0  0  0  0  0  0  0  0
    3.5450    2.5703    0.0000 C   0  0  0  0  0  0  0  0  0  0  0  0
    4.9861    2.9866    0.0000 C   0  0  0  0  0  0  0  0  0  0  0  0
    6.0672    1.9467    0.0000 C   0  0  0  0  0  0  0  0  0  0  0  0
    5.7071    0.4906    0.0000 C   0  0  0  0  0  0  0  0  0  0  0  0
    4.2661    0.0743    0.0000 C   0  0  0  0  0  0  0  0  0  0  0  0
    3.9061   -1.3819    0.0000 C   0  0  0  0  0  0  0  0  0  0  0  0
    4.9871   -2.4217    0.0000 C   0  0  0  0  0  0  0  0  0  0  0  0
    6.4282   -2.0054    0.0000 C   0  0  0  0  0  0  0  0  0  0  0  0
    7.5093   -3.0453    0.0000 O   0  0  0  0  0  0  0  0  0  0  0  0
    2.4650   -1.7982    0.0000 N   0  0  0  0  0  0  0  0  0  0  0  0
    1.3839   -0.7583    0.0000 C   0  0  0  0  0  0  0  0  0  0  0  0
    1.7439    0.6978    0.0000 O   0  0  0  0  0  0  0  0  0  0  0  0
   -0.0572   -1.1746    0.0000 C   0  0  0  0  0  0  0  0  0  0  0  0
   -0.2169    0.3169    0.0000 C   0  0  0  0  0  0  0  0  0  0  0  0
   -1.5884    0.9243    0.0000 C   0  0  0  0  0  0  0  0  0  0  0  0
   -2.8002    0.0402    0.0000 N   0  0  0  0  0  0  0  0  0  0  0  0
   -2.6405   -1.4513    0.0000 C   0  0  0  0  0  0  0  0  0  0  0  0
   -1.2689   -2.0587    0.0000 C   0  0  0  0  0  0  0  0  0  0  0  0
   -4.1717    0.6476    0.0000 C   0  0  0  0  0  0  0  0  0  0  0  0
   -5.3835   -0.2365    0.0000 C   0  0  0  0  0  0  0  0  0  0  0  0
   -5.5373   -1.7286    0.0000 C   0  0  0  0  0  0  0  0  0  0  0  0
   -7.0039   -2.0433    0.0000 C   0  0  0  0  0  0  0  0  0  0  0  0
   -7.7565   -0.7458    0.0000 N   0  0  0  0  0  0  0  0  0  0  0  0
   -6.7550    0.3709    0.0000 C   0  0  0  0  0  0  0  0  0  0  0  0
   -6.9147    1.8624    0.0000 N   0  0  0  0  0  0  0  0  0  0  0  0
   -5.7030    2.7465    0.0000 C   0  0  0  0  0  0  0  0  0  0  0  0
   -4.3314    2.1391    0.0000 N   0  0  0  0  0  0  0  0  0  0  0  0
    0.6031   -2.5215    0.0000 N   0  0  0  0  0  0  0  0  0  0  0  0
    5.3461    4.4427    0.0000 Cl  0  0  0  0  0  0  0  0  0  0  0  0
  1  2  2  0
  2  3  1  0
  3  4  2  0
  4  5  1  0
  5  6  2  0
  6  7  1  0
  7  8  1  6
  8  9  1  0
  9 10  1  0
  7 11  1  0
 11 12  1  0
 12 13  2  0
 12 14  1  0
 14 15  1  0
 15 16  1  0
 16 17  1  0
 17 18  1  0
 18 19  1  0
 17 20  1  0
 20 21  2  0
 21 22  1  0
 22 23  2  0
 23 24  1  0
 24 25  1  0
 25 26  2  0
 26 27  1  0
 27 28  2  0
 14 29  1  0
  3 30  1  0
  6  1  1  0
 19 14  1  0
 28 20  1  0
 25 21  1  0
M  END
>  <BrandName>  (414) 
Truqap

>  <Applicants>  (414) 
Astrazeneca

>  <CHEMBL_ID>  (414) 
CHEMBL2325741

>  <Canonical_Smiles>  (414) 
c1cc(ccc1[C@H](CCO)NC(=O)C2(CCN(CC2)c3c4cc[nH]c4ncn3)N)Cl

>  <Chirality>  (414) 
Single Stereoisomer

>  <First_Approval>  (414) 
2023

>  <Phase>  (414) 
4.0

>  <SC_Patent>  (414) 
nan

>  <Synonyms>  (414) 
AZC5363 | AZD 5363 | AZD-5363 | AZD5363 | CAPIVASERTIB | TRUQAP

>  <Withdrawn>  (414) 
{''}

>  <Indications>  (414) 
On November 2023, FDA approved Capivasertib to treat breast cancer that meets certain disease criteria

>  <Type>  (414) 
nan

>  <targets_id>  (414) 
P31749

>  <Inchi>  (414) 
InChI=1S/C21H25ClN6O2/c22-15-3-1-14(2-4-15)17(6-12-29)27-20(30)21(23)7-10-28(11-8-21)19-16-5-9-24-18(16)25-13-26-19/h1-5,9,13,17,29H,6-8,10-12,23H2,(H,27,30)(H,24,25,26)/t17-/m0/s1

>  <stdInchikey>  (414) 
JDUBGYFRJFOXQC-KRWDZBQOSA-N

>  <csid>  (414) 
28189073

>  <Links>  (414) 
|http://www.chemspider.com/Chemical-Structure.28189073.html|https://www.ebi.ac.uk/chembldb/compound/inspect/CHEMBL2325741|https://pubchem.ncbi.nlm.nih.gov/compound/25227436|https://go.drugbank.com/drugs/DB12218|https://www.rcsb.org/ligand/0XZ|https://www.ebi.ac.uk/pdbe-srv/pdbechem/chemicalCompound/show/0XZ|https://www.guidetopharmacology.org/GRAC/LigandDisplayForward?7709|https://zinc15.docking.org/substances/ZINC000043204023|https://precision.fda.gov/uniisearch/srs/unii/WFR23M21IE

>  <LinkName>  (414) 
|ChemSpider|ChEMBL|PubChem|DrugBank|RCSB|PDBe|Guide to Pharmacology|ZINC|FDA SRS

>  <lig_pdb_ID>  (414) 
0XZ

>  <pdb_IDs>  (414) 
4gv1

>  <indicationDB>  (414) 


>  <uniprotId>  (414) 


>  <indicationG2P>  (414) 
None

>  <MW>  (414) 
428.2

>  <HBA>  (414) 
6

>  <HBD>  (414) 
4

>  <NRB>  (414) 
6

>  <TPSA>  (414) 
120.2

>  <LogP>  (414) 
2.1

>  <RoF>  (414) 
0

>  <Melting point>  (414) 
nan

>  <Targets>  (414) 
AKT1

>  <Kinase families>  (414) 
AGC

>  <FDA_approved>  (414) 
Y

$$$$
Capmatinib
     RDKit          2D

 31 35  0  0  0  0  0  0  0  0999 V2000
   -9.8107   -1.9666    0.0000 C   0  0  0  0  0  0  0  0  0  0  0  0
   -8.5721   -1.1204    0.0000 N   0  0  0  0  0  0  0  0  0  0  0  0
   -7.2200   -1.7700    0.0000 C   0  0  0  0  0  0  0  0  0  0  0  0
   -7.1065   -3.2657    0.0000 O   0  0  0  0  0  0  0  0  0  0  0  0
   -5.9815   -0.9239    0.0000 C   0  0  0  0  0  0  0  0  0  0  0  0
   -6.0949    0.5718    0.0000 C   0  0  0  0  0  0  0  0  0  0  0  0
   -4.8564    1.4180    0.0000 C   0  0  0  0  0  0  0  0  0  0  0  0
   -3.5043    0.7684    0.0000 C   0  0  0  0  0  0  0  0  0  0  0  0
   -3.3908   -0.7273    0.0000 C   0  0  0  0  0  0  0  0  0  0  0  0
   -4.6294   -1.5734    0.0000 C   0  0  0  0  0  0  0  0  0  0  0  0
   -4.5159   -3.0691    0.0000 F   0  0  0  0  0  0  0  0  0  0  0  0
   -2.2657    1.6145    0.0000 C   0  0  0  0  0  0  0  0  0  0  0  0
   -2.3792    3.1102    0.0000 C   0  0  0  0  0  0  0  0  0  0  0  0
   -1.1406    3.9564    0.0000 N   0  0  0  0  0  0  0  0  0  0  0  0
    0.2114    3.3068    0.0000 C   0  0  0  0  0  0  0  0  0  0  0  0
    1.5988    3.8769    0.0000 N   0  0  0  0  0  0  0  0  0  0  0  0
    2.5698    2.7336    0.0000 C   0  0  0  0  0  0  0  0  0  0  0  0
    1.7825    1.4568    0.0000 C   0  0  0  0  0  0  0  0  0  0  0  0
    0.3249    1.8111    0.0000 N   0  0  0  0  0  0  0  0  0  0  0  0
   -0.9137    0.9650    0.0000 N   0  0  0  0  0  0  0  0  0  0  0  0
    2.3526    0.0694    0.0000 C   0  0  0  0  0  0  0  0  0  0  0  0
    3.8392   -0.1306    0.0000 C   0  0  0  0  0  0  0  0  0  0  0  0
    4.7557    1.0569    0.0000 C   0  0  0  0  0  0  0  0  0  0  0  0
    6.2423    0.8569    0.0000 C   0  0  0  0  0  0  0  0  0  0  0  0
    6.8124   -0.5305    0.0000 C   0  0  0  0  0  0  0  0  0  0  0  0
    5.8959   -1.7180    0.0000 C   0  0  0  0  0  0  0  0  0  0  0  0
    4.4093   -1.5180    0.0000 C   0  0  0  0  0  0  0  0  0  0  0  0
    6.4661   -3.1054    0.0000 C   0  0  0  0  0  0  0  0  0  0  0  0
    7.9527   -3.3054    0.0000 C   0  0  0  0  0  0  0  0  0  0  0  0
    8.8692   -2.1179    0.0000 C   0  0  0  0  0  0  0  0  0  0  0  0
    8.2990   -0.7305    0.0000 N   0  0  0  0  0  0  0  0  0  0  0  0
  1  2  1  0
  2  3  1  0
  3  4  2  0
  3  5  1  0
  5  6  2  0
  6  7  1  0
  7  8  2  0
  8  9  1  0
  9 10  2  0
 10 11  1  0
  8 12  1  0
 12 13  1  0
 13 14  2  0
 14 15  1  0
 15 16  2  0
 16 17  1  0
 17 18  2  0
 18 19  1  0
 19 20  1  0
 18 21  1  0
 21 22  1  0
 22 23  2  0
 23 24  1  0
 24 25  2  0
 25 26  1  0
 26 27  2  0
 26 28  1  0
 28 29  2  0
 29 30  1  0
 30 31  2  0
 10  5  1  0
 20 12  2  0
 19 15  1  0
 27 22  1  0
 31 25  1  0
M  END
>  <BrandName>  (415) 


>  <Applicants>  (415) 
Novartis

>  <CHEMBL_ID>  (415) 
CHEMBL3188267

>  <Canonical_Smiles>  (415) 
CNC(=O)c1ccc(cc1F)c2cnc3ncc(n3n2)Cc4ccc5c(c4)cccn5

>  <Chirality>  (415) 
Achiral Molecule

>  <First_Approval>  (415) 
2020

>  <Phase>  (415) 
4.0

>  <SC_Patent>  (415) 
US-7767675-B2

>  <Synonyms>  (415) 
CAPMATINIB | INC-280 | INC280 | INCB-28060 | INCB-28060 FREE BASE | NVP-INC280 | NVP-INC280-NX | NYP-INC280-NX

>  <Withdrawn>  (415) 
{''}

>  <Indications>  (415) 
On may 2020 FDA approved capmatinib to treat patients with non small cell lung cancer

>  <Type>  (415) 
nan

>  <targets_id>  (415) 
P08581

>  <Inchi>  (415) 
InChI=1S/C23H17FN6O/c1-25-22(31)18-6-5-16(11-19(18)24)21-13-28-23-27-12-17(30(23)29-21)10-14-4-7-20-15(9-14)3-2-8-26-20/h2-9,11-13H,10H2,1H3,(H,25,31)

>  <stdInchikey>  (415) 
LIOLIMKSCNQPLV-UHFFFAOYSA-N

>  <csid>  (415) 
25069712

>  <Links>  (415) 
|http://www.chemspider.com/Chemical-Structure.25069712.html|https://www.ebi.ac.uk/chembldb/compound/inspect/CHEMBL3188267|https://pubchem.ncbi.nlm.nih.gov/compound/25145656|https://go.drugbank.com/drugs/DB11791|https://www.guidetopharmacology.org/GRAC/LigandDisplayForward?7904|https://zinc15.docking.org/substances/ZINC000043195321|https://precision.fda.gov/uniisearch/srs/unii/TY34L4F9OZ|https://www.bindingdb.org/bind/chemsearch/marvin/MolStructure.jsp?monomerid=50146167

>  <LinkName>  (415) 
|ChemSpider|ChEMBL|PubChem|DrugBank|Guide to Pharmacology|ZINC|FDA SRS|BindingDB

>  <lig_pdb_ID>  (415) 


>  <pdb_IDs>  (415) 


>  <indicationDB>  (415) 


>  <uniprotId>  (415) 


>  <indicationG2P>  (415) 
None

>  <MW>  (415) 
412.1

>  <HBA>  (415) 
6

>  <HBD>  (415) 
1

>  <NRB>  (415) 
4

>  <TPSA>  (415) 
85.1

>  <LogP>  (415) 
3.4

>  <RoF>  (415) 
0

>  <Melting point>  (415) 
nan

>  <Targets>  (415) 
MET

>  <Kinase families>  (415) 
Tyr

>  <FDA_approved>  (415) 
Y

$$$$
Alectinib
     RDKit          2D

 36 41  0  0  0  0  0  0  0  0999 V2000
   -3.4743   -2.8643    0.0000 C   0  0  0  0  0  0  0  0  0  0  0  0
   -2.0023   -3.1529    0.0000 C   0  0  0  0  0  0  0  0  0  0  0  0
   -1.0165   -2.0223    0.0000 C   0  0  0  0  0  0  0  0  0  0  0  0
    0.4555   -2.3109    0.0000 C   0  0  0  0  0  0  0  0  0  0  0  0
    1.4414   -1.1803    0.0000 C   0  0  0  0  0  0  0  0  0  0  0  0
    0.9552    0.2387    0.0000 C   0  0  0  0  0  0  0  0  0  0  0  0
   -0.5168    0.5272    0.0000 C   0  0  0  0  0  0  0  0  0  0  0  0
   -1.5026   -0.6033    0.0000 C   0  0  0  0  0  0  0  0  0  0  0  0
   -2.9746   -0.3148    0.0000 N   0  0  0  0  0  0  0  0  0  0  0  0
   -3.4607    1.1043    0.0000 C   0  0  0  0  0  0  0  0  0  0  0  0
   -4.9327    1.3928    0.0000 C   0  0  0  0  0  0  0  0  0  0  0  0
   -5.9186    0.2622    0.0000 C   0  0  0  0  0  0  0  0  0  0  0  0
   -5.4325   -1.1568    0.0000 C   0  0  0  0  0  0  0  0  0  0  0  0
   -3.9605   -1.4453    0.0000 C   0  0  0  0  0  0  0  0  0  0  0  0
   -7.3906    0.5508    0.0000 N   0  0  0  0  0  0  0  0  0  0  0  0
   -7.8767    1.9698    0.0000 C   0  0  0  0  0  0  0  0  0  0  0  0
   -9.3487    2.2583    0.0000 C   0  0  0  0  0  0  0  0  0  0  0  0
  -10.3346    1.1278    0.0000 O   0  0  0  0  0  0  0  0  0  0  0  0
   -9.8484   -0.2913    0.0000 C   0  0  0  0  0  0  0  0  0  0  0  0
   -8.3764   -0.5798    0.0000 C   0  0  0  0  0  0  0  0  0  0  0  0
    1.9411    1.3692    0.0000 C   0  0  0  0  0  0  0  0  0  0  0  0
    3.4131    1.0807    0.0000 C   0  0  0  0  0  0  0  0  0  0  0  0
    3.8992   -0.3383    0.0000 C   0  0  0  0  0  0  0  0  0  0  0  0
    5.3990   -0.3145    0.0000 C   0  0  0  0  0  0  0  0  0  0  0  0
    6.4203   -1.4131    0.0000 C   0  0  0  0  0  0  0  0  0  0  0  0
    7.8824   -1.0780    0.0000 C   0  0  0  0  0  0  0  0  0  0  0  0
    8.3232    0.3558    0.0000 C   0  0  0  0  0  0  0  0  0  0  0  0
    7.3019    1.4544    0.0000 C   0  0  0  0  0  0  0  0  0  0  0  0
    5.8398    1.1193    0.0000 C   0  0  0  0  0  0  0  0  0  0  0  0
    4.6124    1.9816    0.0000 N   0  0  0  0  0  0  0  0  0  0  0  0
    9.7853    0.6909    0.0000 C   0  0  0  0  0  0  0  0  0  0  0  0
   11.2474    1.0261    0.0000 N   0  0  0  0  0  0  0  0  0  0  0  0
    2.9134   -1.4688    0.0000 C   0  0  0  0  0  0  0  0  0  0  0  0
    3.3995   -2.8879    0.0000 O   0  0  0  0  0  0  0  0  0  0  0  0
    2.4808    2.7688    0.0000 C   0  0  0  0  0  0  0  0  0  0  0  0
    0.6566    2.1438    0.0000 C   0  0  0  0  0  0  0  0  0  0  0  0
  1  2  1  0
  2  3  1  0
  3  4  2  0
  4  5  1  0
  5  6  2  0
  6  7  1  0
  7  8  2  0
  8  9  1  0
  9 10  1  0
 10 11  1  0
 11 12  1  0
 12 13  1  0
 13 14  1  0
 12 15  1  0
 15 16  1  0
 16 17  1  0
 17 18  1  0
 18 19  1  0
 19 20  1  0
  6 21  1  0
 21 22  1  0
 22 23  2  0
 23 24  1  0
 24 25  2  0
 25 26  1  0
 26 27  2  0
 27 28  1  0
 28 29  2  0
 29 30  1  0
 27 31  1  0
 31 32  3  0
 23 33  1  0
 33 34  2  0
 21 35  1  0
 21 36  1  0
  8  3  1  0
 33  5  1  0
 14  9  1  0
 20 15  1  0
 30 22  1  0
 29 24  1  0
M  END
>  <BrandName>  (416) 
Alecensa

>  <Applicants>  (416) 
Hoffmann-La Roche

>  <CHEMBL_ID>  (416) 
CHEMBL1738797

>  <Canonical_Smiles>  (416) 
CCc1cc2c(cc1N3CCC(CC3)N4CCOCC4)C(c5c(c6ccc(cc6[nH]5)C#N)C2=O)(C)C

>  <Chirality>  (416) 
Achiral Molecule

>  <First_Approval>  (416) 
2015

>  <Phase>  (416) 
4.0

>  <SC_Patent>  (416) 
US-9126931-B2

>  <Synonyms>  (416) 
AF-802 | AF802 | ALECENSA | ALECTINIB | CH-5424802 | CH5424802 | RO-5424802 | RO5424802

>  <Withdrawn>  (416) 
{'', 'Study NCT05238831 in unknown country was Withdrawn during EARLY_PHASE1 because Withdrawn due to a change in therapeutic interventions'}

>  <Indications>  (416) 
Alectinib is a kinase inhibitor indicated for the treatment of patients with anaplastic lymphoma kinase (ALK)-positive, metastatic non-small cell lung cancer (NSCLC) who have progressed on or are intolerant to crizotinib. This indication is approved under accelerated approval based on tumor response rate and duration of response. Continued approval for this indication may be contingent upon verification and description of clinical benefit in confirmatory trials.

>  <Type>  (416) 
1

>  <targets_id>  (416) 
Q9UM73

>  <Inchi>  (416) 
InChI=1S/C30H34N4O2/c1-4-20-16-23-24(17-26(20)34-9-7-21(8-10-34)33-11-13-36-14-12-33)30(2,3)29-27(28(23)35)22-6-5-19(18-31)15-25(22)32-29/h5-6,15-17,21,32H,4,7-14H2,1-3H3

>  <stdInchikey>  (416) 
KDGFLJKFZUIJMX-UHFFFAOYSA-N

>  <csid>  (416) 
26326738

>  <Links>  (416) 
|http://www.chemspider.com/Chemical-Structure.26326738.html|https://www.ebi.ac.uk/chembldb/compound/inspect/CHEMBL1738797|https://pubchem.ncbi.nlm.nih.gov/compound/49806720|https://go.drugbank.com/drugs/DB11363|https://www.rcsb.org/ligand/EMH|https://www.ebi.ac.uk/pdbe-srv/pdbechem/chemicalCompound/show/EMH|https://www.guidetopharmacology.org/GRAC/LigandDisplayForward?7739|https://zinc15.docking.org/substances/ZINC000066166864|https://precision.fda.gov/uniisearch/srs/unii/LIJ4CT1Z3Y|https://www.bindingdb.org/bind/chemsearch/marvin/MolStructure.jsp?monomerid=50362781

>  <LinkName>  (416) 
|ChemSpider|ChEMBL|PubChem|DrugBank|RCSB|PDBe|Guide to Pharmacology|ZINC|FDA SRS|BindingDB

>  <lig_pdb_ID>  (416) 
EMH

>  <pdb_IDs>  (416) 
3aox 5xv7

>  <indicationDB>  (416) 


>  <uniprotId>  (416) 


>  <indicationG2P>  (416) 
None

>  <MW>  (416) 
482.3

>  <HBA>  (416) 
5

>  <HBD>  (416) 
1

>  <NRB>  (416) 
3

>  <TPSA>  (416) 
72.4

>  <LogP>  (416) 
4.8

>  <RoF>  (416) 
0

>  <Melting point>  (416) 
nan

>  <Targets>  (416) 
ALK

>  <Kinase families>  (416) 
Tyr

>  <FDA_approved>  (416) 
Y

$$$$
Afatinib
     RDKit          2D

 34 37  0  0  0  0  0  0  0  0999 V2000
   -0.8173    9.1747    0.0000 C   0  0  0  0  0  0  0  0  0  0  0  0
   -0.3575    7.7469    0.0000 N   0  0  0  0  0  0  0  0  0  0  0  0
    1.1089    7.4313    0.0000 C   0  0  0  0  0  0  0  0  0  0  0  0
   -1.3640    6.6348    0.0000 C   0  0  0  0  0  0  0  0  0  0  0  0
   -0.9042    5.2070    0.0000 C   0  0  0  0  0  0  0  0  0  0  0  0
   -1.9108    4.0949    0.0000 C   0  0  0  0  0  0  0  0  0  0  0  0
   -1.4509    2.6671    0.0000 C   0  0  0  0  0  0  0  0  0  0  0  0
    0.0155    2.3515    0.0000 O   0  0  0  0  0  0  0  0  0  0  0  0
   -2.4575    1.5550    0.0000 N   0  0  0  0  0  0  0  0  0  0  0  0
   -1.9977    0.1273    0.0000 C   0  0  0  0  0  0  0  0  0  0  0  0
   -0.5313   -0.1884    0.0000 C   0  0  0  0  0  0  0  0  0  0  0  0
   -0.0714   -1.6162    0.0000 C   0  0  0  0  0  0  0  0  0  0  0  0
   -1.0780   -2.7283    0.0000 C   0  0  0  0  0  0  0  0  0  0  0  0
   -2.5444   -2.4126    0.0000 C   0  0  0  0  0  0  0  0  0  0  0  0
   -3.0042   -0.9849    0.0000 C   0  0  0  0  0  0  0  0  0  0  0  0
   -4.4706   -0.6692    0.0000 O   0  0  0  0  0  0  0  0  0  0  0  0
   -5.4772   -1.7813    0.0000 C   0  0  0  0  0  0  0  0  0  0  0  0
   -5.1691   -3.2494    0.0000 C   0  0  0  0  0  0  0  0  0  0  0  0
   -6.4701   -3.9960    0.0000 C   0  0  0  0  0  0  0  0  0  0  0  0
   -7.5822   -2.9894    0.0000 O   0  0  0  0  0  0  0  0  0  0  0  0
   -6.9686   -1.6207    0.0000 C   0  0  0  0  0  0  0  0  0  0  0  0
   -0.6181   -4.1561    0.0000 N   0  0  0  0  0  0  0  0  0  0  0  0
    0.8483   -4.4717    0.0000 C   0  0  0  0  0  0  0  0  0  0  0  0
    1.8548   -3.3596    0.0000 N   0  0  0  0  0  0  0  0  0  0  0  0
    1.3950   -1.9318    0.0000 C   0  0  0  0  0  0  0  0  0  0  0  0
    2.4016   -0.8197    0.0000 N   0  0  0  0  0  0  0  0  0  0  0  0
    3.8680   -1.1354    0.0000 C   0  0  0  0  0  0  0  0  0  0  0  0
    4.3278   -2.5631    0.0000 C   0  0  0  0  0  0  0  0  0  0  0  0
    5.7942   -2.8788    0.0000 C   0  0  0  0  0  0  0  0  0  0  0  0
    6.8008   -1.7667    0.0000 C   0  0  0  0  0  0  0  0  0  0  0  0
    6.3410   -0.3389    0.0000 C   0  0  0  0  0  0  0  0  0  0  0  0
    4.8746   -0.0232    0.0000 C   0  0  0  0  0  0  0  0  0  0  0  0
    7.3475    0.7732    0.0000 Cl  0  0  0  0  0  0  0  0  0  0  0  0
    8.2672   -2.0823    0.0000 F   0  0  0  0  0  0  0  0  0  0  0  0
  1  2  1  0
  2  3  1  0
  2  4  1  0
  4  5  1  0
  5  6  2  0
  6  7  1  0
  7  8  2  0
  7  9  1  0
  9 10  1  0
 10 11  2  0
 11 12  1  0
 12 13  2  0
 13 14  1  0
 14 15  2  0
 15 16  1  0
 17 16  1  1
 17 18  1  0
 18 19  1  0
 19 20  1  0
 20 21  1  0
 13 22  1  0
 22 23  2  0
 23 24  1  0
 24 25  2  0
 25 26  1  0
 26 27  1  0
 27 28  2  0
 28 29  1  0
 29 30  2  0
 30 31  1  0
 31 32  2  0
 31 33  1  0
 30 34  1  0
 15 10  1  0
 25 12  1  0
 21 17  1  0
 32 27  1  0
M  END
>  <BrandName>  (417) 
Gilotrif;Giotrif

>  <Applicants>  (417) 
Boehringer Ingelheim

>  <CHEMBL_ID>  (417) 
CHEMBL1173655

>  <Canonical_Smiles>  (417) 
CN(C)C/C=C/C(=O)Nc1cc2c(cc1O[C@H]3CCOC3)ncnc2Nc4ccc(c(c4)Cl)F

>  <Chirality>  (417) 
Single Stereoisomer

>  <First_Approval>  (417) 
2013

>  <Phase>  (417) 
4.0

>  <SC_Patent>  (417) 
US-RE43431-E1

>  <Synonyms>  (417) 
AFATINIB | BIBW 2992 | BIBW-2992 | BIBW2992 | GILOTRIF | GIOTRIF | NSC-750691 | TOMTOVOK | TOVOK

>  <Withdrawn>  (417) 
{'', 'Study NCT02274012 in unknown country was Withdrawn during PHASE2 because Former PI left institution and had plans to continue at another institution', 'Study NCT01480141 in United States was Withdrawn during PHASE2 because PI left MUSC, no patient enrollments', 'Study NCT02876081 in France was Withdrawn during PHASE2 because medical decision', 'Study NCT03652233 in unknown country was Withdrawn during PHASE1 because Low accrual', 'Study NCT03481842 in Switzerland was Withdrawn during PHASE1 because Change in study design and sponsor'}

>  <Indications>  (417) 
Afatinib is a kinase inhibitor indicated for the first-line treatment of patient with metastatic non-small cell lung cancer (NSCLC) whose tumours have epidermal growth factor receptor (EGFR) exon 19 deletions or exon 21 (L858R) substitution mutations as detected by an FDA-approved test.

>  <Type>  (417) 
1

>  <targets_id>  (417) 
P00533|P04626|Q15303

>  <Inchi>  (417) 
InChI=1S/C24H25ClFN5O3/c1-31(2)8-3-4-23(32)30-21-11-17-20(12-22(21)34-16-7-9-33-13-16)27-14-28-24(17)29-15-5-6-19(26)18(25)10-15/h3-6,10-12,14,16H,7-9,13H2,1-2H3,(H,30,32)(H,27,28,29)/b4-3+/t16-/m0/s1

>  <stdInchikey>  (417) 
ULXXDDBFHOBEHA-CWDCEQMOSA-N

>  <csid>  (417) 
8360155

>  <Links>  (417) 
|http://www.chemspider.com/Chemical-Structure.8360155.html|https://www.ebi.ac.uk/chembldb/compound/inspect/CHEMBL1173655|https://pubchem.ncbi.nlm.nih.gov/compound/10184653|https://go.drugbank.com/drugs/DB08916|https://www.rcsb.org/ligand/0WM|https://www.ebi.ac.uk/pdbe-srv/pdbechem/chemicalCompound/show/0WM|https://www.guidetopharmacology.org/GRAC/LigandDisplayForward?5667|https://zinc15.docking.org/substances/ZINC000003976838|https://precision.fda.gov/uniisearch/srs/unii/41UD74L59M|https://www.bindingdb.org/bind/chemsearch/marvin/MolStructure.jsp?monomerid=50322823

>  <LinkName>  (417) 
|ChemSpider|ChEMBL|PubChem|DrugBank|RCSB|PDBe|Guide to Pharmacology|ZINC|FDA SRS|BindingDB

>  <lig_pdb_ID>  (417) 
0WM

>  <pdb_IDs>  (417) 
4g5j

>  <indicationDB>  (417) 


>  <uniprotId>  (417) 


>  <indicationG2P>  (417) 
None

>  <MW>  (417) 
485.2

>  <HBA>  (417) 
7

>  <HBD>  (417) 
2

>  <NRB>  (417) 
8

>  <TPSA>  (417) 
88.6

>  <LogP>  (417) 
4.4

>  <RoF>  (417) 
0

>  <Melting point>  (417) 
nan

>  <Targets>  (417) 
EGFR; ERBB2; ERBB4

>  <Kinase families>  (417) 
Tyr

>  <FDA_approved>  (417) 
Y

$$$$
Asciminib
     RDKit          2D

 31 34  0  0  0  0  0  0  0  0999 V2000
   -3.7501   -1.0934    0.0000 C   0  0  0  0  0  0  0  0  0  0  0  0
   -5.1923   -1.5057    0.0000 C   0  0  0  0  0  0  0  0  0  0  0  0
   -6.2705   -0.4629    0.0000 C   0  0  0  0  0  0  0  0  0  0  0  0
   -5.9064    0.9923    0.0000 C   0  0  0  0  0  0  0  0  0  0  0  0
   -4.4642    1.4046    0.0000 C   0  0  0  0  0  0  0  0  0  0  0  0
   -3.3860    0.3617    0.0000 C   0  0  0  0  0  0  0  0  0  0  0  0
   -1.9438    0.7740    0.0000 N   0  0  0  0  0  0  0  0  0  0  0  0
   -0.8656   -0.2688    0.0000 C   0  0  0  0  0  0  0  0  0  0  0  0
   -1.2297   -1.7240    0.0000 O   0  0  0  0  0  0  0  0  0  0  0  0
    0.5766    0.1434    0.0000 C   0  0  0  0  0  0  0  0  0  0  0  0
    1.6548   -0.8994    0.0000 C   0  0  0  0  0  0  0  0  0  0  0  0
    3.0970   -0.4871    0.0000 C   0  0  0  0  0  0  0  0  0  0  0  0
    3.4610    0.9680    0.0000 C   0  0  0  0  0  0  0  0  0  0  0  0
    2.3829    2.0109    0.0000 N   0  0  0  0  0  0  0  0  0  0  0  0
    0.9407    1.5986    0.0000 C   0  0  0  0  0  0  0  0  0  0  0  0
    4.9033    1.3803    0.0000 N   0  0  0  0  0  0  0  0  0  0  0  0
    5.4174    2.7895    0.0000 C   0  0  0  0  0  0  0  0  0  0  0  0
    6.9165    2.7359    0.0000 C   0  0  0  0  0  0  0  0  0  0  0  0
    7.3288    1.2937    0.0000 C   0  0  0  0  0  0  0  0  0  0  0  0
    6.0845    0.4559    0.0000 C   0  0  0  0  0  0  0  0  0  0  0  0
    8.7379    0.7795    0.0000 O   0  0  0  0  0  0  0  0  0  0  0  0
    4.1752   -1.5300    0.0000 C   0  0  0  0  0  0  0  0  0  0  0  0
    5.6526   -1.2707    0.0000 C   0  0  0  0  0  0  0  0  0  0  0  0
    6.3557   -2.5957    0.0000 C   0  0  0  0  0  0  0  0  0  0  0  0
    5.3129   -3.6738    0.0000 N   0  0  0  0  0  0  0  0  0  0  0  0
    3.9652   -3.0152    0.0000 N   0  0  0  0  0  0  0  0  0  0  0  0
   -7.7127   -0.8752    0.0000 O   0  0  0  0  0  0  0  0  0  0  0  0
   -8.7909    0.1677    0.0000 C   0  0  0  0  0  0  0  0  0  0  0  0
   -9.8690    1.2106    0.0000 F   0  0  0  0  0  0  0  0  0  0  0  0
   -9.8337   -0.9105    0.0000 F   0  0  0  0  0  0  0  0  0  0  0  0
   -7.7480    1.2459    0.0000 Cl  0  0  0  0  0  0  0  0  0  0  0  0
  1  2  2  0
  2  3  1  0
  3  4  2  0
  4  5  1  0
  5  6  2  0
  6  7  1  0
  7  8  1  0
  8  9  2  0
  8 10  1  0
 10 11  2  0
 11 12  1  0
 12 13  2  0
 13 14  1  0
 14 15  2  0
 13 16  1  0
 16 17  1  0
 17 18  1  0
 18 19  1  0
 19 20  1  0
 19 21  1  1
 12 22  1  0
 22 23  2  0
 23 24  1  0
 24 25  2  0
 25 26  1  0
  3 27  1  0
 27 28  1  0
 28 29  1  0
 28 30  1  0
 28 31  1  0
  6  1  1  0
 15 10  1  0
 20 16  1  0
 26 22  1  0
M  END
>  <BrandName>  (418) 


>  <Applicants>  (418) 
Novartis

>  <CHEMBL_ID>  (418) 
CHEMBL4208229

>  <Canonical_Smiles>  (418) 
c1cc(ccc1NC(=O)c2cc(c(nc2)N3CC[C@H](C3)O)c4ccn[nH]4)OC(F)(F)Cl

>  <Chirality>  (418) 
Single Stereoisomer

>  <First_Approval>  (418) 
2021

>  <Phase>  (418) 
4.0

>  <SC_Patent>  (418) 
US-8829195-B2

>  <Synonyms>  (418) 
ABL-001 | ABL001 | ABL001-NX | ASCIMINIB | NVP-ABL001

>  <Withdrawn>  (418) 
{''}

>  <Indications>  (418) 
On October 2021, FDA approved asciminib To treat Philadelphia chromosome-positive chronic myeloid leukemia with disease that meets certain criteria

>  <Type>  (418) 
nan

>  <targets_id>  (418) 
nan

>  <Inchi>  (418) 
InChI=1S/C20H18ClF2N5O3/c21-20(22,23)31-15-3-1-13(2-4-15)26-19(30)12-9-16(17-5-7-25-27-17)18(24-10-12)28-8-6-14(29)11-28/h1-5,7,9-10,14,29H,6,8,11H2,(H,25,27)(H,26,30)/t14-/m1/s1

>  <stdInchikey>  (418) 
VOVZXURTCKPRDQ-CQSZACIVSA-N

>  <csid>  (418) 
52085218

>  <Links>  (418) 
|http://www.chemspider.com/Chemical-Structure.52085218.html|https://www.ebi.ac.uk/chembldb/compound/inspect/CHEMBL4208229|https://pubchem.ncbi.nlm.nih.gov/compound/72165228|https://go.drugbank.com/drugs/DB12597|https://www.rcsb.org/ligand/AY7|https://www.ebi.ac.uk/pdbe-srv/pdbechem/chemicalCompound/show/AY7|https://www.guidetopharmacology.org/GRAC/LigandDisplayForward?8962|https://zinc15.docking.org/substances/ZINC000150275965|https://precision.fda.gov/uniisearch/srs/unii/L1F3R18W77|https://www.bindingdb.org/bind/chemsearch/marvin/MolStructure.jsp?monomerid=50459091

>  <LinkName>  (418) 
|ChemSpider|ChEMBL|PubChem|DrugBank|RCSB|PDBe|Guide to Pharmacology|ZINC|FDA SRS|BindingDB

>  <lig_pdb_ID>  (418) 
AY7

>  <pdb_IDs>  (418) 
5mo4 8ssn

>  <indicationDB>  (418) 


>  <uniprotId>  (418) 


>  <indicationG2P>  (418) 
None

>  <MW>  (418) 
449.1

>  <HBA>  (418) 
6

>  <HBD>  (418) 
3

>  <NRB>  (418) 
6

>  <TPSA>  (418) 
103.4

>  <LogP>  (418) 
3.5

>  <RoF>  (418) 
0

>  <Melting point>  (418) 
nan

>  <Targets>  (418) 
nan

>  <Kinase families>  (418) 


>  <FDA_approved>  (418) 
Y

$$$$
Abrocitinib
     RDKit          2D

 22 24  0  0  0  0  0  0  0  0999 V2000
   -4.4976    3.3422    0.0000 C   0  0  0  0  0  0  0  0  0  0  0  0
   -3.7661    2.0326    0.0000 C   0  0  0  0  0  0  0  0  0  0  0  0
   -4.5345    0.7444    0.0000 C   0  0  0  0  0  0  0  0  0  0  0  0
   -3.8031   -0.5652    0.0000 S   0  0  0  0  0  0  0  0  0  0  0  0
   -2.4935    0.1663    0.0000 O   0  0  0  0  0  0  0  0  0  0  0  0
   -5.1126   -1.2967    0.0000 O   0  0  0  0  0  0  0  0  0  0  0  0
   -3.0716   -1.8748    0.0000 N   0  0  0  0  0  0  0  0  0  0  0  0
   -1.5718   -1.8961    0.0000 C   0  0  0  0  0  0  0  0  0  0  0  0
   -0.4961   -0.8506    0.0000 C   0  0  0  0  0  0  0  0  0  0  0  0
    0.5493   -1.9262    0.0000 C   0  0  0  0  0  0  0  0  0  0  0  0
   -0.5263   -2.9717    0.0000 C   0  0  0  0  0  0  0  0  0  0  0  0
    2.0492   -1.9476    0.0000 N   0  0  0  0  0  0  0  0  0  0  0  0
    2.7807   -3.2571    0.0000 C   0  0  0  0  0  0  0  0  0  0  0  0
    2.8176   -0.6593    0.0000 C   0  0  0  0  0  0  0  0  0  0  0  0
    2.0861    0.6502    0.0000 C   0  0  0  0  0  0  0  0  0  0  0  0
    0.6235    0.9829    0.0000 C   0  0  0  0  0  0  0  0  0  0  0  0
    0.4879    2.4768    0.0000 C   0  0  0  0  0  0  0  0  0  0  0  0
    1.8668    3.0674    0.0000 N   0  0  0  0  0  0  0  0  0  0  0  0
    2.8545    1.9385    0.0000 C   0  0  0  0  0  0  0  0  0  0  0  0
    4.3544    1.9172    0.0000 N   0  0  0  0  0  0  0  0  0  0  0  0
    5.0858    0.6076    0.0000 C   0  0  0  0  0  0  0  0  0  0  0  0
    4.3174   -0.6806    0.0000 N   0  0  0  0  0  0  0  0  0  0  0  0
  1  2  1  0
  2  3  1  0
  3  4  1  0
  4  5  2  0
  4  6  2  0
  4  7  1  0
  7  8  1  0
  8  9  1  0
  9 10  1  0
 10 11  1  0
 10 12  1  0
 12 13  1  0
 12 14  1  0
 14 15  2  0
 15 16  1  0
 16 17  2  0
 17 18  1  0
 18 19  1  0
 19 20  2  0
 20 21  1  0
 21 22  2  0
 11  8  1  0
 22 14  1  0
 19 15  1  0
M  END
>  <BrandName>  (419) 
Cibinqo

>  <Applicants>  (419) 
Pfizer

>  <CHEMBL_ID>  (419) 
CHEMBL3655081

>  <Canonical_Smiles>  (419) 
CCCS(=O)(=O)NC1CC(C1)N(C)c2c3cc[nH]c3ncn2

>  <Chirality>  (419) 
Single Stereoisomer

>  <First_Approval>  (419) 
2022

>  <Phase>  (419) 
4.0

>  <SC_Patent>  (419) 
US-9035074-B2

>  <Synonyms>  (419) 
|CIBINQO|PF-04965842|SOLU-MEDROL|ABROCITINIB

>  <Withdrawn>  (419) 
{''}

>  <Indications>  (419) 
On January 2022, FDA approved abrocitinib to treat refractory, moderate-to-severe atopic dermatitis

>  <Type>  (419) 
nan

>  <targets_id>  (419) 
nan

>  <Inchi>  (419) 
InChI=1S/C14H21N5O2S/c1-3-6-22(20,21)18-10-7-11(8-10)19(2)14-12-4-5-15-13(12)16-9-17-14/h4-5,9-11,18H,3,6-8H2,1-2H3,(H,15,16,17)/t10-,11+

>  <stdInchikey>  (419) 
IUEWXNHSKRWHDY-UHFFFAOYSA-N

>  <csid>  (419) 
68006894

>  <Links>  (419) 
|http://www.chemspider.com/Chemical-Structure.68006894.html|https://pubchem.ncbi.nlm.nih.gov/compound/78323835

>  <LinkName>  (419) 
|ChemSpider|PubChem

>  <lig_pdb_ID>  (419) 


>  <pdb_IDs>  (419) 


>  <indicationDB>  (419) 


>  <uniprotId>  (419) 


>  <indicationG2P>  (419) 


>  <MW>  (419) 
323.1

>  <HBA>  (419) 
5

>  <HBD>  (419) 
2

>  <NRB>  (419) 
6

>  <TPSA>  (419) 
91.0

>  <LogP>  (419) 
1.3

>  <RoF>  (419) 
0

>  <Melting point>  (419) 
nan

>  <Targets>  (419) 
nan

>  <Kinase families>  (419) 


>  <FDA_approved>  (419) 
Y

$$$$
Belumosudil
     RDKit          2D

 34 38  0  0  0  0  0  0  0  0999 V2000
  -10.8376    2.2169    0.0000 C   0  0  0  0  0  0  0  0  0  0  0  0
   -9.7321    1.2030    0.0000 C   0  0  0  0  0  0  0  0  0  0  0  0
  -10.0575   -0.2613    0.0000 C   0  0  0  0  0  0  0  0  0  0  0  0
   -8.3013    1.6534    0.0000 N   0  0  0  0  0  0  0  0  0  0  0  0
   -7.1959    0.6395    0.0000 C   0  0  0  0  0  0  0  0  0  0  0  0
   -7.5213   -0.8248    0.0000 O   0  0  0  0  0  0  0  0  0  0  0  0
   -5.7651    1.0898    0.0000 C   0  0  0  0  0  0  0  0  0  0  0  0
   -4.6597    0.0759    0.0000 O   0  0  0  0  0  0  0  0  0  0  0  0
   -3.2289    0.5263    0.0000 C   0  0  0  0  0  0  0  0  0  0  0  0
   -2.9035    1.9906    0.0000 C   0  0  0  0  0  0  0  0  0  0  0  0
   -1.4727    2.4410    0.0000 C   0  0  0  0  0  0  0  0  0  0  0  0
   -0.3673    1.4270    0.0000 C   0  0  0  0  0  0  0  0  0  0  0  0
   -0.6927   -0.0373    0.0000 C   0  0  0  0  0  0  0  0  0  0  0  0
   -2.1235   -0.4876    0.0000 C   0  0  0  0  0  0  0  0  0  0  0  0
    0.4127   -1.0512    0.0000 C   0  0  0  0  0  0  0  0  0  0  0  0
    0.0874   -2.5155    0.0000 N   0  0  0  0  0  0  0  0  0  0  0  0
    1.1928   -3.5294    0.0000 C   0  0  0  0  0  0  0  0  0  0  0  0
    0.8674   -4.9937    0.0000 C   0  0  0  0  0  0  0  0  0  0  0  0
    1.9729   -6.0076    0.0000 C   0  0  0  0  0  0  0  0  0  0  0  0
    3.4037   -5.5572    0.0000 C   0  0  0  0  0  0  0  0  0  0  0  0
    3.7290   -4.0929    0.0000 C   0  0  0  0  0  0  0  0  0  0  0  0
    2.6236   -3.0790    0.0000 C   0  0  0  0  0  0  0  0  0  0  0  0
    2.9490   -1.6147    0.0000 C   0  0  0  0  0  0  0  0  0  0  0  0
    1.8435   -0.6008    0.0000 N   0  0  0  0  0  0  0  0  0  0  0  0
    4.3798   -1.1643    0.0000 N   0  0  0  0  0  0  0  0  0  0  0  0
    4.7051    0.2999    0.0000 C   0  0  0  0  0  0  0  0  0  0  0  0
    6.1359    0.7503    0.0000 C   0  0  0  0  0  0  0  0  0  0  0  0
    6.4613    2.2146    0.0000 C   0  0  0  0  0  0  0  0  0  0  0  0
    5.3558    3.2285    0.0000 C   0  0  0  0  0  0  0  0  0  0  0  0
    3.9251    2.7781    0.0000 C   0  0  0  0  0  0  0  0  0  0  0  0
    3.5997    1.3139    0.0000 C   0  0  0  0  0  0  0  0  0  0  0  0
    5.9785    4.5932    0.0000 N   0  0  0  0  0  0  0  0  0  0  0  0
    7.4688    4.4226    0.0000 N   0  0  0  0  0  0  0  0  0  0  0  0
    7.7672    2.9526    0.0000 C   0  0  0  0  0  0  0  0  0  0  0  0
  1  2  1  0
  2  3  1  0
  2  4  1  0
  4  5  1  0
  5  6  2  0
  5  7  1  0
  7  8  1  0
  8  9  1  0
  9 10  2  0
 10 11  1  0
 11 12  2  0
 12 13  1  0
 13 14  2  0
 13 15  1  0
 15 16  2  0
 16 17  1  0
 17 18  2  0
 18 19  1  0
 19 20  2  0
 20 21  1  0
 21 22  2  0
 22 23  1  0
 23 24  2  0
 23 25  1  0
 25 26  1  0
 26 27  2  0
 27 28  1  0
 28 29  2  0
 29 30  1  0
 30 31  2  0
 29 32  1  0
 32 33  1  0
 33 34  2  0
 14  9  1  0
 24 15  1  0
 22 17  1  0
 31 26  1  0
 34 28  1  0
M  END
>  <BrandName>  (420) 


>  <Applicants>  (420) 
Surface logix

>  <CHEMBL_ID>  (420) 
CHEMBL2005186

>  <Canonical_Smiles>  (420) 
CC(C)NC(=O)COC1=CC=CC(=C1)C2=NC3=CC=CC=C3C(=N2)NC4=CC5=C(C=C4)NN=C5

>  <Chirality>  (420) 
Achiral Molecule

>  <First_Approval>  (420) 
2021

>  <Phase>  (420) 
4.0

>  <SC_Patent>  (420) 
US-8357693-B2

>  <Synonyms>  (420) 
BELUMOSUDIL | KD-025 | KD025 | ROCK2 INHIBITOR KD025 | SLX-2119 | SLX-2119 FREE BASE

>  <Withdrawn>  (420) 
{''}

>  <Indications>  (420) 
On July 2021, FDA approved belumosudil to treat chronic graft-versus-host disease after failure of at least two prior lines of systemic therapy

>  <Type>  (420) 
nan

>  <targets_id>  (420) 
nan

>  <Inchi>  (420) 
InChI=1S/C26H24N6O2/c1-16(2)28-24(33)15-34-20-7-5-6-17(13-20)25-30-23-9-4-3-8-21(23)26(31-25)29-19-10-11-22-18(12-19)14-27-32-22/h3-14,16H,15H2,1-2H3,(H,27,32)(H,28,33)(H,29,30,31)

>  <stdInchikey>  (420) 
GKHIVNAUVKXIIY-UHFFFAOYSA-N

>  <csid>  (420) 
103836147

>  <Links>  (420) 
|http://www.chemspider.com/Chemical-Structure.103836147.html|https://www.ebi.ac.uk/chembldb/compound/inspect/CHEMBL2005186|https://pubchem.ncbi.nlm.nih.gov/compound/11950170|https://go.drugbank.com/drugs/DB16703|https://www.rcsb.org/ligand/ICQ|https://www.ebi.ac.uk/pdbe-srv/pdbechem/chemicalCompound/show/ICQ|https://www.guidetopharmacology.org/GRAC/LigandDisplayForward?9558|https://zinc15.docking.org/substances/ZINC000063298464|https://precision.fda.gov/uniisearch/srs/unii/834YJF89WO|https://www.bindingdb.org/bind/chemsearch/marvin/MolStructure.jsp?monomerid=322155

>  <LinkName>  (420) 
|ChemSpider|ChEMBL|PubChem|DrugBank|RCSB|PDBe|Guide to Pharmacology|ZINC|FDA SRS|BindingDB

>  <lig_pdb_ID>  (420) 
ICQ

>  <pdb_IDs>  (420) 
7z39

>  <indicationDB>  (420) 


>  <uniprotId>  (420) 


>  <indicationG2P>  (420) 
None

>  <MW>  (420) 
452.2

>  <HBA>  (420) 
6

>  <HBD>  (420) 
3

>  <NRB>  (420) 
7

>  <TPSA>  (420) 
104.8

>  <LogP>  (420) 
4.8

>  <RoF>  (420) 
0

>  <Melting point>  (420) 
nan

>  <Targets>  (420) 
nan

>  <Kinase families>  (420) 


>  <FDA_approved>  (420) 
Y

$$$$
Ceritinib
     RDKit          2D

 38 41  0  0  0  0  0  0  0  0999 V2000
    5.7267   -3.2197    0.0000 C   0  0  0  0  0  0  0  0  0  0  0  0
    4.7768   -2.0588    0.0000 C   0  0  0  0  0  0  0  0  0  0  0  0
    3.2965   -2.3010    0.0000 C   0  0  0  0  0  0  0  0  0  0  0  0
    2.3465   -1.1402    0.0000 C   0  0  0  0  0  0  0  0  0  0  0  0
    2.8769    0.2629    0.0000 C   0  0  0  0  0  0  0  0  0  0  0  0
    4.3572    0.5052    0.0000 C   0  0  0  0  0  0  0  0  0  0  0  0
    5.3071   -0.6557    0.0000 C   0  0  0  0  0  0  0  0  0  0  0  0
    6.7874   -0.4134    0.0000 C   0  0  0  0  0  0  0  0  0  0  0  0
    7.7374   -1.5743    0.0000 C   0  0  0  0  0  0  0  0  0  0  0  0
    9.2177   -1.3321    0.0000 C   0  0  0  0  0  0  0  0  0  0  0  0
    9.7481    0.0711    0.0000 N   0  0  0  0  0  0  0  0  0  0  0  0
    8.7981    1.2319    0.0000 C   0  0  0  0  0  0  0  0  0  0  0  0
    7.3178    0.9897    0.0000 C   0  0  0  0  0  0  0  0  0  0  0  0
    1.9269    1.4238    0.0000 O   0  0  0  0  0  0  0  0  0  0  0  0
    2.4573    2.8269    0.0000 C   0  0  0  0  0  0  0  0  0  0  0  0
    1.5074    3.9878    0.0000 C   0  0  0  0  0  0  0  0  0  0  0  0
    3.9376    3.0692    0.0000 C   0  0  0  0  0  0  0  0  0  0  0  0
    0.8662   -1.3824    0.0000 N   0  0  0  0  0  0  0  0  0  0  0  0
   -0.0837   -0.2215    0.0000 C   0  0  0  0  0  0  0  0  0  0  0  0
    0.4466    1.1816    0.0000 N   0  0  0  0  0  0  0  0  0  0  0  0
   -0.5033    2.3424    0.0000 C   0  0  0  0  0  0  0  0  0  0  0  0
   -1.9836    2.1002    0.0000 C   0  0  0  0  0  0  0  0  0  0  0  0
   -2.5140    0.6971    0.0000 C   0  0  0  0  0  0  0  0  0  0  0  0
   -1.5641   -0.4638    0.0000 N   0  0  0  0  0  0  0  0  0  0  0  0
   -3.9943    0.4548    0.0000 N   0  0  0  0  0  0  0  0  0  0  0  0
   -4.5247   -0.9483    0.0000 C   0  0  0  0  0  0  0  0  0  0  0  0
   -3.5747   -2.1091    0.0000 C   0  0  0  0  0  0  0  0  0  0  0  0
   -4.1051   -3.5122    0.0000 C   0  0  0  0  0  0  0  0  0  0  0  0
   -5.5854   -3.7545    0.0000 C   0  0  0  0  0  0  0  0  0  0  0  0
   -6.5353   -2.5936    0.0000 C   0  0  0  0  0  0  0  0  0  0  0  0
   -6.0050   -1.1905    0.0000 C   0  0  0  0  0  0  0  0  0  0  0  0
   -6.9549   -0.0297    0.0000 S   0  0  0  0  0  0  0  0  0  0  0  0
   -5.7941    0.9203    0.0000 O   0  0  0  0  0  0  0  0  0  0  0  0
   -8.1158   -0.9796    0.0000 O   0  0  0  0  0  0  0  0  0  0  0  0
   -7.9049    1.1312    0.0000 C   0  0  0  0  0  0  0  0  0  0  0  0
   -9.3852    0.8890    0.0000 C   0  0  0  0  0  0  0  0  0  0  0  0
   -7.3745    2.5343    0.0000 C   0  0  0  0  0  0  0  0  0  0  0  0
   -2.9336    3.2611    0.0000 Cl  0  0  0  0  0  0  0  0  0  0  0  0
  1  2  1  0
  2  3  2  0
  3  4  1  0
  4  5  2  0
  5  6  1  0
  6  7  2  0
  7  8  1  0
  8  9  1  0
  9 10  1  0
 10 11  1  0
 11 12  1  0
 12 13  1  0
  5 14  1  0
 14 15  1  0
 15 16  1  0
 15 17  1  0
  4 18  1  0
 18 19  1  0
 19 20  2  0
 20 21  1  0
 21 22  2  0
 22 23  1  0
 23 24  2  0
 23 25  1  0
 25 26  1  0
 26 27  2  0
 27 28  1  0
 28 29  2  0
 29 30  1  0
 30 31  2  0
 31 32  1  0
 32 33  2  0
 32 34  2  0
 32 35  1  0
 35 36  1  0
 35 37  1  0
 22 38  1  0
  7  2  1  0
 13  8  1  0
 24 19  1  0
 31 26  1  0
M  END
>  <BrandName>  (421) 
Zykadia

>  <Applicants>  (421) 
Novartis

>  <CHEMBL_ID>  (421) 
CHEMBL2403108

>  <Canonical_Smiles>  (421) 
Cc1cc(c(cc1C2CCNCC2)OC(C)C)Nc3ncc(c(n3)Nc4ccccc4S(=O)(=O)C(C)C)Cl

>  <Chirality>  (421) 
Achiral Molecule

>  <First_Approval>  (421) 
2014

>  <Phase>  (421) 
4.0

>  <SC_Patent>  (421) 
US-7893074-B2

>  <Synonyms>  (421) 
CERITINIB | CERITINIB[MI] | LDK-378 | LDK378 | NVP-LDK-378-NX | NVP-LDK378-NX | ZYKADIA

>  <Withdrawn>  (421) 
{'', 'Study NCT02343679 in United States was Withdrawn during PHASE2 because No accrual due to rarity of disease', 'Study NCT02729961 in United States was Withdrawn during PHASE1 because Administrative closure', 'Study NCT02289144 in United States was Withdrawn during PHASE2 because study was on hold for protocol redesign; decided to not move forward with study'}

>  <Indications>  (421) 
Ceritinib is a kinase inhibitor indicated for the treatment of patients with anaplastic lymphoma kinase (ALK)-positive metastatic non-small cell lung cancer (NSCLC) who have progressed on or are intolerant to crizotinib. This indication is approved under accelerated approval based on tumor response rate and duration of response. An improvement in survival or disease-related symptoms has not been established. Continued approval for this indication may be contingent upon verification and description of clinical benefit in confirmatory trials.

>  <Type>  (421) 
1

>  <targets_id>  (421) 
Q9UM73

>  <Inchi>  (421) 
InChI=1S/C28H36ClN5O3S/c1-17(2)37-25-15-21(20-10-12-30-13-11-20)19(5)14-24(25)33-28-31-16-22(29)27(34-28)32-23-8-6-7-9-26(23)38(35,36)18(3)4/h6-9,14-18,20,30H,10-13H2,1-5H3,(H2,31,32,33,34)

>  <stdInchikey>  (421) 
VERWOWGGCGHDQE-UHFFFAOYSA-N

>  <csid>  (421) 
29315053

>  <Links>  (421) 
|http://www.chemspider.com/Chemical-Structure.29315053.html|https://www.ebi.ac.uk/chembldb/compound/inspect/CHEMBL2403108|https://pubchem.ncbi.nlm.nih.gov/compound/57379345|https://go.drugbank.com/drugs/DB09063|https://www.rcsb.org/ligand/4MK|https://www.ebi.ac.uk/pdbe-srv/pdbechem/chemicalCompound/show/4MK|https://www.guidetopharmacology.org/GRAC/LigandDisplayForward?7397|https://zinc15.docking.org/substances/ZINC000096272772|https://precision.fda.gov/uniisearch/srs/unii/K418KG2GET|https://www.bindingdb.org/bind/chemsearch/marvin/MolStructure.jsp?monomerid=50436850

>  <LinkName>  (421) 
|ChemSpider|ChEMBL|PubChem|DrugBank|RCSB|PDBe|Guide to Pharmacology|ZINC|FDA SRS|BindingDB

>  <lig_pdb_ID>  (421) 
4MK

>  <pdb_IDs>  (421) 
4mkc

>  <indicationDB>  (421) 


>  <uniprotId>  (421) 


>  <indicationG2P>  (421) 
None

>  <MW>  (421) 
557.2

>  <HBA>  (421) 
8

>  <HBD>  (421) 
3

>  <NRB>  (421) 
9

>  <TPSA>  (421) 
105.2

>  <LogP>  (421) 
6.4

>  <RoF>  (421) 
2

>  <Melting point>  (421) 
nan

>  <Targets>  (421) 
ALK

>  <Kinase families>  (421) 
Tyr

>  <FDA_approved>  (421) 
Y

$$$$
Anlotinib
     RDKit          2D

 30 34  0  0  0  0  0  0  0  0999 V2000
   -9.5022    1.0614    0.0000 C   0  0  0  0  0  0  0  0  0  0  0  0
   -8.0623    0.6413    0.0000 C   0  0  0  0  0  0  0  0  0  0  0  0
   -6.8760    1.5593    0.0000 C   0  0  0  0  0  0  0  0  0  0  0  0
   -5.6363    0.7148    0.0000 C   0  0  0  0  0  0  0  0  0  0  0  0
   -6.0564   -0.7251    0.0000 C   0  0  0  0  0  0  0  0  0  0  0  0
   -7.5558   -0.7706    0.0000 N   0  0  0  0  0  0  0  0  0  0  0  0
   -5.0194   -1.8090    0.0000 C   0  0  0  0  0  0  0  0  0  0  0  0
   -3.5623   -1.4528    0.0000 C   0  0  0  0  0  0  0  0  0  0  0  0
   -3.1422   -0.0128    0.0000 C   0  0  0  0  0  0  0  0  0  0  0  0
   -4.1792    1.0710    0.0000 C   0  0  0  0  0  0  0  0  0  0  0  0
   -3.7591    2.5109    0.0000 F   0  0  0  0  0  0  0  0  0  0  0  0
   -1.6851    0.3433    0.0000 O   0  0  0  0  0  0  0  0  0  0  0  0
   -0.6481   -0.7405    0.0000 C   0  0  0  0  0  0  0  0  0  0  0  0
   -1.0682   -2.1804    0.0000 C   0  0  0  0  0  0  0  0  0  0  0  0
   -0.0312   -3.2643    0.0000 C   0  0  0  0  0  0  0  0  0  0  0  0
    1.4259   -2.9081    0.0000 N   0  0  0  0  0  0  0  0  0  0  0  0
    1.8460   -1.4681    0.0000 C   0  0  0  0  0  0  0  0  0  0  0  0
    0.8090   -0.3843    0.0000 C   0  0  0  0  0  0  0  0  0  0  0  0
    1.2291    1.0557    0.0000 C   0  0  0  0  0  0  0  0  0  0  0  0
    2.6862    1.4118    0.0000 C   0  0  0  0  0  0  0  0  0  0  0  0
    3.7232    0.3280    0.0000 C   0  0  0  0  0  0  0  0  0  0  0  0
    3.3031   -1.1120    0.0000 C   0  0  0  0  0  0  0  0  0  0  0  0
    5.1803    0.6842    0.0000 O   0  0  0  0  0  0  0  0  0  0  0  0
    6.2173   -0.3996    0.0000 C   0  0  0  0  0  0  0  0  0  0  0  0
    7.6744   -0.0435    0.0000 C   0  0  0  0  0  0  0  0  0  0  0  0
    9.1654   -0.2072    0.0000 C   0  0  0  0  0  0  0  0  0  0  0  0
    8.2782   -1.4166    0.0000 C   0  0  0  0  0  0  0  0  0  0  0  0
    7.5767    1.4533    0.0000 N   0  0  0  0  0  0  0  0  0  0  0  0
    3.1063    2.8518    0.0000 O   0  0  0  0  0  0  0  0  0  0  0  0
    4.5634    3.2079    0.0000 C   0  0  0  0  0  0  0  0  0  0  0  0
  1  2  1  0
  2  3  2  0
  3  4  1  0
  4  5  2  0
  5  6  1  0
  5  7  1  0
  7  8  2  0
  8  9  1  0
  9 10  2  0
 10 11  1  0
  9 12  1  0
 12 13  1  0
 13 14  2  0
 14 15  1  0
 15 16  2  0
 16 17  1  0
 17 18  2  0
 18 19  1  0
 19 20  2  0
 20 21  1  0
 21 22  2  0
 21 23  1  0
 23 24  1  0
 24 25  1  0
 25 26  1  0
 26 27  1  0
 25 28  1  0
 20 29  1  0
 29 30  1  0
  6  2  1  0
 10  4  1  0
 18 13  1  0
 22 17  1  0
 27 25  1  0
M  END
>  <BrandName>  (422) 


>  <Applicants>  (422) 
Advenchen Laboratories

>  <CHEMBL_ID>  (422) 
nan

>  <Canonical_Smiles>  (422) 
Cc1cc2c([nH]1)ccc(c2F)Oc3ccnc4c3cc(c(c4)OCC5(CC5)N)OC

>  <Chirality>  (422) 
nan

>  <First_Approval>  (422) 
nan

>  <Phase>  (422) 
4.0

>  <SC_Patent>  (422) 
nan

>  <Synonyms>  (422) 
AL 3818 | AL-3818 | AL3818 | ANLOTINIB | CATEQUENTINIB

>  <Withdrawn>  (422) 
{''}

>  <Indications>  (422) 
Anlotinib (AL3818) is a non-selective inhibitor of multiple receptor tyrosine kinases, including vascular endothelial growth factor receptor type 2 (VEGFR-2, FLT1) and type 3 (VEGFR-3, FLT4). It is being investigated for antineoplastic and anti-angiogenic potential. The dihydrochloride has PubChem CID: 57380530. Preparation and crystallisation of AL3818 is described in patent WO2016179123.

>  <Type>  (422) 
nan

>  <targets_id>  (422) 
P35968|P35916

>  <Inchi>  (422) 
InChI=1S/C23H22FN3O3/c1-13-9-15-16(27-13)3-4-19(22(15)24)30-18-5-8-26-17-11-21(20(28-2)10-14(17)18)29-12-23(25)6-7-23/h3-5,8-11,27H,6-7,12,25H2,1-2H3

>  <stdInchikey>  (422) 
KSMZEXLVHXZPEF-UHFFFAOYSA-N

>  <csid>  (422) 
45743493

>  <Links>  (422) 
|http://www.chemspider.com/Chemical-Structure.45743493.html|https://www.ebi.ac.uk/chembldb/compound/inspect/CHEMBL4303201|https://pubchem.ncbi.nlm.nih.gov/compound/25017411|https://go.drugbank.com/drugs/DB11885|https://www.guidetopharmacology.org/GRAC/LigandDisplayForward?9601|https://zinc15.docking.org/substances/ZINC000117924202|https://precision.fda.gov/uniisearch/srs/unii/GKF8S4C432

>  <LinkName>  (422) 
|ChemSpider|ChEMBL|PubChem|DrugBank|Guide to Pharmacology|ZINC|FDA SRS

>  <lig_pdb_ID>  (422) 


>  <pdb_IDs>  (422) 


>  <indicationDB>  (422) 


>  <uniprotId>  (422) 


>  <indicationG2P>  (422) 
None

>  <MW>  (422) 
407.2

>  <HBA>  (422) 
5

>  <HBD>  (422) 
2

>  <NRB>  (422) 
6

>  <TPSA>  (422) 
82.4

>  <LogP>  (422) 
4.8

>  <RoF>  (422) 
0

>  <Melting point>  (422) 
nan

>  <Targets>  (422) 
KDR; FLT4

>  <Kinase families>  (422) 
Tyr

>  <FDA_approved>  (422) 
N

$$$$
Duvelisib
     RDKit          2D

 30 34  0  0  0  0  0  0  0  0999 V2000
   -0.9446    1.7228    0.0000 C   0  0  0  0  0  0  0  0  0  0  0  0
   -0.6820    0.2459    0.0000 C   0  0  0  0  0  0  0  0  0  0  0  0
    0.7282   -0.2651    0.0000 C   0  0  0  0  0  0  0  0  0  0  0  0
    0.9908   -1.7420    0.0000 C   0  0  0  0  0  0  0  0  0  0  0  0
    2.4011   -2.2530    0.0000 C   0  0  0  0  0  0  0  0  0  0  0  0
    2.6636   -3.7298    0.0000 C   0  0  0  0  0  0  0  0  0  0  0  0
    4.0739   -4.2409    0.0000 C   0  0  0  0  0  0  0  0  0  0  0  0
    5.2216   -3.2751    0.0000 C   0  0  0  0  0  0  0  0  0  0  0  0
    4.9590   -1.7982    0.0000 C   0  0  0  0  0  0  0  0  0  0  0  0
    3.5488   -1.2872    0.0000 C   0  0  0  0  0  0  0  0  0  0  0  0
    3.2862    0.1896    0.0000 C   0  0  0  0  0  0  0  0  0  0  0  0
    4.4339    1.1555    0.0000 O   0  0  0  0  0  0  0  0  0  0  0  0
    1.8759    0.7007    0.0000 N   0  0  0  0  0  0  0  0  0  0  0  0
    1.6134    2.1775    0.0000 C   0  0  0  0  0  0  0  0  0  0  0  0
    2.7611    3.1433    0.0000 C   0  0  0  0  0  0  0  0  0  0  0  0
    2.4985    4.6202    0.0000 C   0  0  0  0  0  0  0  0  0  0  0  0
    1.0883    5.1312    0.0000 C   0  0  0  0  0  0  0  0  0  0  0  0
   -0.0594    4.1654    0.0000 C   0  0  0  0  0  0  0  0  0  0  0  0
    0.2031    2.6886    0.0000 C   0  0  0  0  0  0  0  0  0  0  0  0
    6.1067   -0.8324    0.0000 Cl  0  0  0  0  0  0  0  0  0  0  0  0
   -1.8297   -0.7199    0.0000 N   0  0  0  0  0  0  0  0  0  0  0  0
   -3.2400   -0.2089    0.0000 C   0  0  0  0  0  0  0  0  0  0  0  0
   -4.3877   -1.1747    0.0000 C   0  0  0  0  0  0  0  0  0  0  0  0
   -5.7980   -0.6636    0.0000 C   0  0  0  0  0  0  0  0  0  0  0  0
   -6.7198   -1.8470    0.0000 N   0  0  0  0  0  0  0  0  0  0  0  0
   -5.8792   -3.0893    0.0000 C   0  0  0  0  0  0  0  0  0  0  0  0
   -4.4379   -2.6738    0.0000 N   0  0  0  0  0  0  0  0  0  0  0  0
   -6.0605    0.8132    0.0000 N   0  0  0  0  0  0  0  0  0  0  0  0
   -4.9128    1.7790    0.0000 C   0  0  0  0  0  0  0  0  0  0  0  0
   -3.5025    1.2680    0.0000 N   0  0  0  0  0  0  0  0  0  0  0  0
  2  1  1  1
  2  3  1  0
  3  4  2  0
  4  5  1  0
  5  6  2  0
  6  7  1  0
  7  8  2  0
  8  9  1  0
  9 10  2  0
 10 11  1  0
 11 12  2  0
 11 13  1  0
 13 14  1  0
 14 15  2  0
 15 16  1  0
 16 17  2  0
 17 18  1  0
 18 19  2  0
  9 20  1  0
  2 21  1  0
 21 22  1  0
 22 23  1  0
 23 24  2  0
 24 25  1  0
 25 26  1  0
 26 27  2  0
 24 28  1  0
 28 29  2  0
 29 30  1  0
 13  3  1  0
 10  5  1  0
 19 14  1  0
 30 22  2  0
 27 23  1  0
M  END
>  <BrandName>  (423) 
Copiktra

>  <Applicants>  (423) 
Infinity Pharmacueticals

>  <CHEMBL_ID>  (423) 
CHEMBL3039502

>  <Canonical_Smiles>  (423) 
C[C@@H](c1cc2cccc(c2c(=O)n1c3ccccc3)Cl)Nc4c5c([nH]cn5)ncn4

>  <Chirality>  (423) 
Single Stereoisomer

>  <First_Approval>  (423) 
2018

>  <Phase>  (423) 
4.0

>  <SC_Patent>  (423) 
US-8193182-B2

>  <Synonyms>  (423) 
DUVELISIB | INK-1197 | IPI-145

>  <Withdrawn>  (423) 
{'', 'Study NCT04639843 in United States was Withdrawn during PHASE1 because Safety issues with PI3 kinase inhibitors', 'Study NCT04836832 in unknown country was Withdrawn during PHASE1 because PI decision'}

>  <Indications>  (423) 
On october 27, 2018, the FDA approved duvelisib to treat relapsed or refractory chronic lymphocytic leukemia, small lymphocytic lymphoma and follicular lymphoma

>  <Type>  (423) 
nan

>  <targets_id>  (423) 
O00329|P48736

>  <Inchi>  (423) 
InChI=1S/C22H17ClN6O/c1-13(28-21-19-20(25-11-24-19)26-12-27-21)17-10-14-6-5-9-16(23)18(14)22(30)29(17)15-7-3-2-4-8-15/h2-13H,1H3,(H2,24,25,26,27,28)/t13-/m0/s1

>  <stdInchikey>  (423) 
SJVQHLPISAIATJ-ZDUSSCGKSA-N

>  <csid>  (423) 
28637766

>  <Links>  (423) 
|http://www.chemspider.com/Chemical-Structure.28637766.html|https://www.ebi.ac.uk/chembldb/compound/inspect/CHEMBL3039502|https://pubchem.ncbi.nlm.nih.gov/compound/50905713|https://go.drugbank.com/drugs/DB11952|https://www.guidetopharmacology.org/GRAC/LigandDisplayForward?7795|https://zinc15.docking.org/substances/ZINC000088346058|https://precision.fda.gov/uniisearch/srs/unii/610V23S0JI|https://www.bindingdb.org/bind/chemsearch/marvin/MolStructure.jsp?monomerid=50193013

>  <LinkName>  (423) 
|ChemSpider|ChEMBL|PubChem|DrugBank|Guide to Pharmacology|ZINC|FDA SRS|BindingDB

>  <lig_pdb_ID>  (423) 


>  <pdb_IDs>  (423) 


>  <indicationDB>  (423) 


>  <uniprotId>  (423) 


>  <indicationG2P>  (423) 
None

>  <MW>  (423) 
416.1

>  <HBA>  (423) 
6

>  <HBD>  (423) 
2

>  <NRB>  (423) 
4

>  <TPSA>  (423) 
88.5

>  <LogP>  (423) 
4.5

>  <RoF>  (423) 
0

>  <Melting point>  (423) 
>190 C

>  <Targets>  (423) 
PIK3CD; PIK3CG

>  <Kinase families>  (423) 
Atypical

>  <FDA_approved>  (423) 
Y

$$$$
Cobimetinib
     RDKit          2D

 30 33  0  0  0  0  0  0  0  0999 V2000
   -6.1573    0.1522    0.0000 C   0  0  0  0  0  0  0  0  0  0  0  0
   -6.6426    1.5715    0.0000 C   0  0  0  0  0  0  0  0  0  0  0  0
   -5.6561    2.7015    0.0000 C   0  0  0  0  0  0  0  0  0  0  0  0
   -4.1843    2.4121    0.0000 C   0  0  0  0  0  0  0  0  0  0  0  0
   -3.6990    0.9928    0.0000 C   0  0  0  0  0  0  0  0  0  0  0  0
   -4.6855   -0.1371    0.0000 C   0  0  0  0  0  0  0  0  0  0  0  0
   -2.2271    0.7035    0.0000 N   0  0  0  0  0  0  0  0  0  0  0  0
   -1.7418   -0.7159    0.0000 C   0  0  0  0  0  0  0  0  0  0  0  0
   -2.7283   -1.8458    0.0000 C   0  0  0  0  0  0  0  0  0  0  0  0
   -2.2430   -3.2651    0.0000 C   0  0  0  0  0  0  0  0  0  0  0  0
   -0.7712   -3.5545    0.0000 C   0  0  0  0  0  0  0  0  0  0  0  0
    0.2153   -2.4245    0.0000 C   0  0  0  0  0  0  0  0  0  0  0  0
   -0.2700   -1.0052    0.0000 C   0  0  0  0  0  0  0  0  0  0  0  0
    0.7165    0.1247    0.0000 C   0  0  0  0  0  0  0  0  0  0  0  0
    0.2312    1.5441    0.0000 O   0  0  0  0  0  0  0  0  0  0  0  0
    2.1883   -0.1646    0.0000 N   0  0  0  0  0  0  0  0  0  0  0  0
    3.0245   -1.4100    0.0000 C   0  0  0  0  0  0  0  0  0  0  0  0
    4.2698   -0.5738    0.0000 C   0  0  0  0  0  0  0  0  0  0  0  0
    3.4337    0.6715    0.0000 C   0  0  0  0  0  0  0  0  0  0  0  0
    5.1059   -1.8192    0.0000 O   0  0  0  0  0  0  0  0  0  0  0  0
    5.5152    0.2623    0.0000 C   0  0  0  0  0  0  0  0  0  0  0  0
    6.8619   -0.3981    0.0000 N   0  0  0  0  0  0  0  0  0  0  0  0
    8.1073    0.4380    0.0000 C   0  0  0  0  0  0  0  0  0  0  0  0
    8.0058    1.9346    0.0000 C   0  0  0  0  0  0  0  0  0  0  0  0
    6.6591    2.5950    0.0000 C   0  0  0  0  0  0  0  0  0  0  0  0
    5.4137    1.7589    0.0000 C   0  0  0  0  0  0  0  0  0  0  0  0
   -3.2295   -4.3951    0.0000 F   0  0  0  0  0  0  0  0  0  0  0  0
   -4.2002   -1.5565    0.0000 F   0  0  0  0  0  0  0  0  0  0  0  0
   -3.1978    3.5421    0.0000 F   0  0  0  0  0  0  0  0  0  0  0  0
   -8.1145    1.8609    0.0000 I   0  0  0  0  0  0  0  0  0  0  0  0
  1  2  2  0
  2  3  1  0
  3  4  2  0
  4  5  1  0
  5  6  2  0
  5  7  1  0
  7  8  1  0
  8  9  2  0
  9 10  1  0
 10 11  2  0
 11 12  1  0
 12 13  2  0
 13 14  1  0
 14 15  2  0
 14 16  1  0
 16 17  1  0
 17 18  1  0
 18 19  1  0
 18 20  1  0
 21 18  1  6
 21 22  1  0
 22 23  1  0
 23 24  1  0
 24 25  1  0
 25 26  1  0
 10 27  1  0
  9 28  1  0
  4 29  1  0
  2 30  1  0
  6  1  1  0
 13  8  1  0
 19 16  1  0
 26 21  1  0
M  END
>  <BrandName>  (424) 
Cotellic

>  <Applicants>  (424) 
Hoffmann-La Roche

>  <CHEMBL_ID>  (424) 
CHEMBL2146883

>  <Canonical_Smiles>  (424) 
c1c(cc(c(c1)Nc2c(c(ccc2C(=O)N3C[C@@](C3)(O)[C@H]4NCCCC4)F)F)F)I

>  <Chirality>  (424) 
Single Stereoisomer

>  <First_Approval>  (424) 
2015

>  <Phase>  (424) 
4.0

>  <SC_Patent>  (424) 
US-7803839-B2

>  <Synonyms>  (424) 
COBIMETINIB | COTELLIC | GDC 0623 | GDC 0973 | GDC-0623 | GDC-0973 | RG 7420 | RG-7420 | RG-7421 | RG7420 | XL 518 | XL-518 | XL518

>  <Withdrawn>  (424) 
{'', 'Study NCT05238831 in unknown country was Withdrawn during EARLY_PHASE1 because Withdrawn due to a change in therapeutic interventions', 'Study NCT02427893 in United States was Withdrawn during PHASE3 because no patients were enrolled', 'Study NCT03005639 in United States was Withdrawn during PHASE2 because Sponsor has decided to close study'}

>  <Indications>  (424) 
For the treatment of patients with unresectable or metastatic melanoma with a BRAF V600E or V600K mutation. Cobimetinib is used in combination with vemurafenib, a BRAF inhibitor.

>  <Type>  (424) 
3

>  <targets_id>  (424) 
Q02750

>  <Inchi>  (424) 
InChI=1S/C21H21F3IN3O2/c22-14-6-5-13(19(18(14)24)27-16-7-4-12(25)9-15(16)23)20(29)28-10-21(30,11-28)17-3-1-2-8-26-17/h4-7,9,17,26-27,30H,1-3,8,10-11H2/t17-/m0/s1

>  <stdInchikey>  (424) 
BSMCAPRUBJMWDF-KRWDZBQOSA-N

>  <csid>  (424) 
17349374

>  <Links>  (424) 
|http://www.chemspider.com/Chemical-Structure.17349374.html|https://www.ebi.ac.uk/chembldb/compound/inspect/CHEMBL2146883|https://pubchem.ncbi.nlm.nih.gov/compound/16222096|https://go.drugbank.com/drugs/DB05239|https://www.rcsb.org/ligand/EUI|https://www.ebi.ac.uk/pdbe-srv/pdbechem/chemicalCompound/show/EUI|https://www.guidetopharmacology.org/GRAC/LigandDisplayForward?7626|https://zinc15.docking.org/substances/ZINC000060325170|https://precision.fda.gov/uniisearch/srs/unii/ER29L26N1X|https://www.bindingdb.org/bind/chemsearch/marvin/MolStructure.jsp?monomerid=50391802

>  <LinkName>  (424) 
|ChemSpider|ChEMBL|PubChem|DrugBank|RCSB|PDBe|Guide to Pharmacology|ZINC|FDA SRS|BindingDB

>  <lig_pdb_ID>  (424) 
EUI

>  <pdb_IDs>  (424) 
4an2 4lmn 7juy 7m0v 8ygq

>  <indicationDB>  (424) 


>  <uniprotId>  (424) 


>  <indicationG2P>  (424) 
None

>  <MW>  (424) 
531.1

>  <HBA>  (424) 
4

>  <HBD>  (424) 
3

>  <NRB>  (424) 
4

>  <TPSA>  (424) 
64.6

>  <LogP>  (424) 
3.8

>  <RoF>  (424) 
1

>  <Melting point>  (424) 
nan

>  <Targets>  (424) 
MAP2K1

>  <Kinase families>  (424) 
STE

>  <FDA_approved>  (424) 
Y

$$$$
Copanlisib
     RDKit          2D

 35 39  0  0  0  0  0  0  0  0999 V2000
    1.7522    2.2553    0.0000 C   0  0  0  0  0  0  0  0  0  0  0  0
    0.5259    1.3914    0.0000 O   0  0  0  0  0  0  0  0  0  0  0  0
    0.6609   -0.1025    0.0000 C   0  0  0  0  0  0  0  0  0  0  0  0
    2.0222   -0.7326    0.0000 C   0  0  0  0  0  0  0  0  0  0  0  0
    2.1572   -2.2265    0.0000 C   0  0  0  0  0  0  0  0  0  0  0  0
    0.9309   -3.0903    0.0000 C   0  0  0  0  0  0  0  0  0  0  0  0
   -0.4304   -2.4603    0.0000 C   0  0  0  0  0  0  0  0  0  0  0  0
   -0.5653   -0.9664    0.0000 C   0  0  0  0  0  0  0  0  0  0  0  0
   -1.9266   -0.3363    0.0000 N   0  0  0  0  0  0  0  0  0  0  0  0
   -3.1529   -1.2002    0.0000 C   0  0  0  0  0  0  0  0  0  0  0  0
   -3.0179   -2.6941    0.0000 N   0  0  0  0  0  0  0  0  0  0  0  0
   -1.6566   -3.3241    0.0000 C   0  0  0  0  0  0  0  0  0  0  0  0
   -1.8352   -4.8135    0.0000 N   0  0  0  0  0  0  0  0  0  0  0  0
   -3.3068   -5.1039    0.0000 C   0  0  0  0  0  0  0  0  0  0  0  0
   -4.0378   -3.7940    0.0000 C   0  0  0  0  0  0  0  0  0  0  0  0
   -4.5141   -0.5701    0.0000 N   0  0  0  0  0  0  0  0  0  0  0  0
   -4.6491    0.9238    0.0000 C   0  0  0  0  0  0  0  0  0  0  0  0
   -3.4228    1.7877    0.0000 O   0  0  0  0  0  0  0  0  0  0  0  0
   -6.0104    1.5539    0.0000 C   0  0  0  0  0  0  0  0  0  0  0  0
   -6.1454    3.0478    0.0000 C   0  0  0  0  0  0  0  0  0  0  0  0
   -7.5066    3.6778    0.0000 N   0  0  0  0  0  0  0  0  0  0  0  0
   -8.7329    2.8140    0.0000 C   0  0  0  0  0  0  0  0  0  0  0  0
   -8.5979    1.3201    0.0000 N   0  0  0  0  0  0  0  0  0  0  0  0
   -7.2367    0.6900    0.0000 C   0  0  0  0  0  0  0  0  0  0  0  0
  -10.0942    3.4441    0.0000 N   0  0  0  0  0  0  0  0  0  0  0  0
    3.2485    0.1313    0.0000 O   0  0  0  0  0  0  0  0  0  0  0  0
    4.6097   -0.4988    0.0000 C   0  0  0  0  0  0  0  0  0  0  0  0
    5.8360    0.3651    0.0000 C   0  0  0  0  0  0  0  0  0  0  0  0
    7.1973   -0.2650    0.0000 C   0  0  0  0  0  0  0  0  0  0  0  0
    8.4235    0.5989    0.0000 N   0  0  0  0  0  0  0  0  0  0  0  0
    9.7848   -0.0312    0.0000 C   0  0  0  0  0  0  0  0  0  0  0  0
   11.0111    0.8327    0.0000 C   0  0  0  0  0  0  0  0  0  0  0  0
   10.8761    2.3266    0.0000 O   0  0  0  0  0  0  0  0  0  0  0  0
    9.5148    2.9566    0.0000 C   0  0  0  0  0  0  0  0  0  0  0  0
    8.2886    2.0928    0.0000 C   0  0  0  0  0  0  0  0  0  0  0  0
  1  2  1  0
  2  3  1  0
  3  4  2  0
  4  5  1  0
  5  6  2  0
  6  7  1  0
  7  8  2  0
  8  9  1  0
  9 10  2  0
 10 11  1  0
 11 12  1  0
 12 13  2  0
 13 14  1  0
 14 15  1  0
 10 16  1  0
 16 17  1  0
 17 18  2  0
 17 19  1  0
 19 20  2  0
 20 21  1  0
 21 22  2  0
 22 23  1  0
 23 24  2  0
 22 25  1  0
  4 26  1  0
 26 27  1  0
 27 28  1  0
 28 29  1  0
 29 30  1  0
 30 31  1  0
 31 32  1  0
 32 33  1  0
 33 34  1  0
 34 35  1  0
  8  3  1  0
 12  7  1  0
 15 11  1  0
 24 19  1  0
 35 30  1  0
M  END
>  <BrandName>  (425) 
Aliqopa

>  <Applicants>  (425) 
Bayer

>  <CHEMBL_ID>  (425) 
CHEMBL3218576

>  <Canonical_Smiles>  (425) 
COc1c(ccc2c1N=C(N3C2=NCC3)NC(=O)c4cnc(nc4)N)OCCCN5CCOCC5

>  <Chirality>  (425) 
Achiral Molecule

>  <First_Approval>  (425) 
2017

>  <Phase>  (425) 
4.0

>  <SC_Patent>  (425) 
US-7511041-B2

>  <Synonyms>  (425) 
BAY 80-6946 | BAY-80-6946 | BAY80-6946 | COPANLISIB

>  <Withdrawn>  (425) 
{'', 'Study NCT03377101 in unknown country was Withdrawn during PHASE2 because change in study design', 'Study NCT04685915 in unknown country was Withdrawn during PHASE2 because Bayer is no longer funding due to lack of accrual', 'Study NCT04233697 in unknown country was Withdrawn during PHASE1 because Investigator left institution'}

>  <Indications>  (425) 
Indicated for the treatment of adult patients with relapsed follicular lymphoma (FL) who have received at least two prior systemic therapies.

>  <Type>  (425) 
1

>  <targets_id>  (425) 
P42336|P42338

>  <Inchi>  (425) 
InChI=1S/C23H28N8O4/c1-33-19-17(35-10-2-6-30-8-11-34-12-9-30)4-3-16-18(19)28-23(31-7-5-25-20(16)31)29-21(32)15-13-26-22(24)27-14-15/h3-4,13-14H,2,5-12H2,1H3,(H2,24,26,27)(H,28,29,32)

>  <stdInchikey>  (425) 
PZBCKZWLPGJMAO-UHFFFAOYSA-N

>  <csid>  (425) 
25069683

>  <Links>  (425) 
|http://www.chemspider.com/Chemical-Structure.25069683.html|https://www.ebi.ac.uk/chembldb/compound/inspect/CHEMBL3218576|https://go.drugbank.com/drugs/DB12483|https://www.rcsb.org/ligand/6E2|https://www.ebi.ac.uk/pdbe-srv/pdbechem/chemicalCompound/show/6E2|https://www.guidetopharmacology.org/GRAC/LigandDisplayForward?7875|https://zinc15.docking.org/substances/ZINC000068247389|https://precision.fda.gov/uniisearch/srs/unii/WI6V529FZ9|https://www.bindingdb.org/bind/chemsearch/marvin/MolStructure.jsp?monomerid=50204093

>  <LinkName>  (425) 
|ChemSpider|ChEMBL|DrugBank|RCSB|PDBe|Guide to Pharmacology|ZINC|FDA SRS|BindingDB

>  <lig_pdb_ID>  (425) 
6E2

>  <pdb_IDs>  (425) 
5g2n

>  <indicationDB>  (425) 


>  <uniprotId>  (425) 


>  <indicationG2P>  (425) 
None

>  <MW>  (425) 
480.2

>  <HBA>  (425) 
11

>  <HBD>  (425) 
2

>  <NRB>  (425) 
7

>  <TPSA>  (425) 
139.8

>  <LogP>  (425) 
0.7

>  <RoF>  (425) 
1

>  <Melting point>  (425) 
nan

>  <Targets>  (425) 
PIK3CA; PIK3CB

>  <Kinase families>  (425) 
Atypical

>  <FDA_approved>  (425) 
Y

$$$$
Avapritinib
     RDKit          2D

 37 42  0  0  0  0  0  0  0  0999 V2000
    5.4243    3.6324    0.0000 C   0  0  0  0  0  0  0  0  0  0  0  0
    6.1066    2.2966    0.0000 C   0  0  0  0  0  0  0  0  0  0  0  0
    6.7889    0.9608    0.0000 C   0  0  0  0  0  0  0  0  0  0  0  0
    5.9732   -0.2981    0.0000 C   0  0  0  0  0  0  0  0  0  0  0  0
    6.6555   -1.6339    0.0000 C   0  0  0  0  0  0  0  0  0  0  0  0
    8.1536   -1.7109    0.0000 C   0  0  0  0  0  0  0  0  0  0  0  0
    8.9693   -0.4521    0.0000 C   0  0  0  0  0  0  0  0  0  0  0  0
    8.2869    0.8837    0.0000 C   0  0  0  0  0  0  0  0  0  0  0  0
    8.8359   -3.0467    0.0000 F   0  0  0  0  0  0  0  0  0  0  0  0
    4.7708    1.6143    0.0000 C   0  0  0  0  0  0  0  0  0  0  0  0
    3.5120    2.4300    0.0000 C   0  0  0  0  0  0  0  0  0  0  0  0
    2.1761    1.7476    0.0000 N   0  0  0  0  0  0  0  0  0  0  0  0
    2.0991    0.2496    0.0000 C   0  0  0  0  0  0  0  0  0  0  0  0
    3.3579   -0.5661    0.0000 N   0  0  0  0  0  0  0  0  0  0  0  0
    4.6938    0.1162    0.0000 C   0  0  0  0  0  0  0  0  0  0  0  0
    0.7633   -0.4327    0.0000 N   0  0  0  0  0  0  0  0  0  0  0  0
   -0.4955    0.3830    0.0000 C   0  0  0  0  0  0  0  0  0  0  0  0
   -1.8314   -0.2993    0.0000 C   0  0  0  0  0  0  0  0  0  0  0  0
   -1.9084   -1.7973    0.0000 N   0  0  0  0  0  0  0  0  0  0  0  0
   -0.6495   -2.6130    0.0000 C   0  0  0  0  0  0  0  0  0  0  0  0
    0.6863   -1.9307    0.0000 C   0  0  0  0  0  0  0  0  0  0  0  0
   -3.2442   -2.4797    0.0000 C   0  0  0  0  0  0  0  0  0  0  0  0
   -4.5030   -1.6639    0.0000 C   0  0  0  0  0  0  0  0  0  0  0  0
   -4.7391   -0.1827    0.0000 C   0  0  0  0  0  0  0  0  0  0  0  0
   -6.2209    0.0505    0.0000 C   0  0  0  0  0  0  0  0  0  0  0  0
   -6.9006   -1.2867    0.0000 C   0  0  0  0  0  0  0  0  0  0  0  0
   -5.8388   -2.3463    0.0000 N   0  0  0  0  0  0  0  0  0  0  0  0
   -5.9159   -3.8443    0.0000 N   0  0  0  0  0  0  0  0  0  0  0  0
   -4.6570   -4.6600    0.0000 C   0  0  0  0  0  0  0  0  0  0  0  0
   -3.3212   -3.9777    0.0000 N   0  0  0  0  0  0  0  0  0  0  0  0
   -6.9032    1.3863    0.0000 C   0  0  0  0  0  0  0  0  0  0  0  0
   -8.3850    1.6195    0.0000 C   0  0  0  0  0  0  0  0  0  0  0  0
   -8.6211    3.1008    0.0000 N   0  0  0  0  0  0  0  0  0  0  0  0
   -7.2853    3.7831    0.0000 N   0  0  0  0  0  0  0  0  0  0  0  0
   -6.2236    2.7235    0.0000 C   0  0  0  0  0  0  0  0  0  0  0  0
   -7.0521    5.2649    0.0000 C   0  0  0  0  0  0  0  0  0  0  0  0
    7.4424    2.9789    0.0000 N   0  0  0  0  0  0  0  0  0  0  0  0
  2  1  1  6
  2  3  1  0
  3  4  2  0
  4  5  1  0
  5  6  2  0
  6  7  1  0
  7  8  2  0
  6  9  1  0
  2 10  1  0
 10 11  2  0
 11 12  1  0
 12 13  2  0
 13 14  1  0
 14 15  2  0
 13 16  1  0
 16 17  1  0
 17 18  1  0
 18 19  1  0
 19 20  1  0
 20 21  1  0
 19 22  1  0
 22 23  1  0
 23 24  2  0
 24 25  1  0
 25 26  2  0
 26 27  1  0
 27 28  1  0
 28 29  2  0
 29 30  1  0
 25 31  1  0
 31 32  1  0
 32 33  2  0
 33 34  1  0
 34 35  1  0
 34 36  1  0
  2 37  1  0
  8  3  1  0
 15 10  1  0
 21 16  1  0
 30 22  2  0
 27 23  1  0
 35 31  2  0
M  END
>  <BrandName>  (426) 
Ayvakit;Ayvakyt

>  <Applicants>  (426) 
Blueprint Medicines

>  <CHEMBL_ID>  (426) 
CHEMBL4204794

>  <Canonical_Smiles>  (426) 
C[C@](c1ccc(cc1)F)(c2cnc(nc2)N3CCN(CC3)c4c5cc(cn5ncn4)c6cnn(c6)C)N

>  <Chirality>  (426) 
Single Stereoisomer

>  <First_Approval>  (426) 
2020

>  <Phase>  (426) 
4.0

>  <SC_Patent>  (426) 
US-9200002-B2

>  <Synonyms>  (426) 
70C366 | AVAPRITINIB | AYVAKIT | AYVAKYT | BLU-285 | C-366 | X-720776 | X720776

>  <Withdrawn>  (426) 
{''}

>  <Indications>  (426) 
On January 2020 FDA approved avapritinib to treat adults with unresectable or metastatic gastrointestinal stromal tumor (GIST)

>  <Type>  (426) 
nan

>  <targets_id>  (426) 
nan

>  <Inchi>  (426) 
InChI=1S/C26H27FN10/c1-26(28,20-3-5-22(27)6-4-20)21-13-29-25(30-14-21)36-9-7-35(8-10-36)24-23-11-18(16-37(23)33-17-31-24)19-12-32-34(2)15-19/h3-6,11-17H,7-10,28H2,1-2H3/t26-/m0/s1

>  <stdInchikey>  (426) 
DWYRIWUZIJHQKQ-SANMLTNESA-N

>  <csid>  (426) 
58828673

>  <Links>  (426) 
|http://www.chemspider.com/Chemical-Structure.58828673.html|https://www.ebi.ac.uk/chembldb/compound/inspect/CHEMBL4204794|https://pubchem.ncbi.nlm.nih.gov/compound/118023034|https://go.drugbank.com/drugs/DB15233|https://www.rcsb.org/ligand/9JI|https://www.ebi.ac.uk/pdbe-srv/pdbechem/chemicalCompound/show/9JI|https://www.guidetopharmacology.org/GRAC/LigandDisplayForward?10368|https://precision.fda.gov/uniisearch/srs/unii/513P80B4YJ|https://www.bindingdb.org/bind/chemsearch/marvin/MolStructure.jsp?monomerid=469269

>  <LinkName>  (426) 
|ChemSpider|ChEMBL|PubChem|DrugBank|RCSB|PDBe|Guide to Pharmacology|FDA SRS|BindingDB

>  <lig_pdb_ID>  (426) 
9JI

>  <pdb_IDs>  (426) 
8pq9 8pqg 8pqh

>  <indicationDB>  (426) 


>  <uniprotId>  (426) 


>  <indicationG2P>  (426) 
None

>  <MW>  (426) 
498.2

>  <HBA>  (426) 
10

>  <HBD>  (426) 
1

>  <NRB>  (426) 
5

>  <TPSA>  (426) 
106.3

>  <LogP>  (426) 
2.6

>  <RoF>  (426) 
0

>  <Melting point>  (426) 
nan

>  <Targets>  (426) 
nan

>  <Kinase families>  (426) 


>  <FDA_approved>  (426) 
Y

$$$$
Axitinib
     RDKit          2D

 28 31  0  0  0  0  0  0  0  0999 V2000
   -8.0028   -3.1808    0.0000 C   0  0  0  0  0  0  0  0  0  0  0  0
   -7.5451   -1.7524    0.0000 N   0  0  0  0  0  0  0  0  0  0  0  0
   -6.0792   -1.4345    0.0000 C   0  0  0  0  0  0  0  0  0  0  0  0
   -5.0710   -2.5451    0.0000 O   0  0  0  0  0  0  0  0  0  0  0  0
   -5.6215   -0.0061    0.0000 C   0  0  0  0  0  0  0  0  0  0  0  0
   -6.6297    1.1046    0.0000 C   0  0  0  0  0  0  0  0  0  0  0  0
   -6.1720    2.5330    0.0000 C   0  0  0  0  0  0  0  0  0  0  0  0
   -4.7061    2.8509    0.0000 C   0  0  0  0  0  0  0  0  0  0  0  0
   -3.6978    1.7403    0.0000 C   0  0  0  0  0  0  0  0  0  0  0  0
   -4.1555    0.3118    0.0000 C   0  0  0  0  0  0  0  0  0  0  0  0
   -3.1473   -0.7988    0.0000 S   0  0  0  0  0  0  0  0  0  0  0  0
   -1.6814   -0.4810    0.0000 C   0  0  0  0  0  0  0  0  0  0  0  0
   -0.6731   -1.5916    0.0000 C   0  0  0  0  0  0  0  0  0  0  0  0
    0.7928   -1.2737    0.0000 C   0  0  0  0  0  0  0  0  0  0  0  0
    1.2505    0.1547    0.0000 C   0  0  0  0  0  0  0  0  0  0  0  0
    0.2423    1.2653    0.0000 C   0  0  0  0  0  0  0  0  0  0  0  0
   -1.2237    0.9475    0.0000 C   0  0  0  0  0  0  0  0  0  0  0  0
    0.9870    2.5674    0.0000 N   0  0  0  0  0  0  0  0  0  0  0  0
    2.4554    2.2616    0.0000 N   0  0  0  0  0  0  0  0  0  0  0  0
    2.6183    0.7704    0.0000 C   0  0  0  0  0  0  0  0  0  0  0  0
    3.9204    0.0257    0.0000 C   0  0  0  0  0  0  0  0  0  0  0  0
    5.2164    0.7810    0.0000 C   0  0  0  0  0  0  0  0  0  0  0  0
    6.5185    0.0363    0.0000 C   0  0  0  0  0  0  0  0  0  0  0  0
    6.5246   -1.4637    0.0000 C   0  0  0  0  0  0  0  0  0  0  0  0
    7.8267   -2.2084    0.0000 C   0  0  0  0  0  0  0  0  0  0  0  0
    9.1226   -1.4531    0.0000 C   0  0  0  0  0  0  0  0  0  0  0  0
    9.1165    0.0469    0.0000 C   0  0  0  0  0  0  0  0  0  0  0  0
    7.8144    0.7916    0.0000 N   0  0  0  0  0  0  0  0  0  0  0  0
  1  2  1  0
  2  3  1  0
  3  4  2  0
  3  5  1  0
  5  6  2  0
  6  7  1  0
  7  8  2  0
  8  9  1  0
  9 10  2  0
 10 11  1  0
 11 12  1  0
 12 13  2  0
 13 14  1  0
 14 15  2  0
 15 16  1  0
 16 17  2  0
 16 18  1  0
 18 19  1  0
 19 20  2  0
 20 21  1  0
 21 22  2  0
 22 23  1  0
 23 24  2  0
 24 25  1  0
 25 26  2  0
 26 27  1  0
 27 28  2  0
 10  5  1  0
 17 12  1  0
 20 15  1  0
 28 23  1  0
M  END
>  <BrandName>  (427) 
Inlyta

>  <Applicants>  (427) 
Pfizer

>  <CHEMBL_ID>  (427) 
CHEMBL1289926

>  <Canonical_Smiles>  (427) 
CNC(=O)c1ccccc1Sc2ccc3c(c2)[nH]nc3/C=C/c4ccccn4

>  <Chirality>  (427) 
Achiral Molecule

>  <First_Approval>  (427) 
2012

>  <Phase>  (427) 
4.0

>  <SC_Patent>  (427) 
US-6534524-B1

>  <Synonyms>  (427) 
AG-013736 | AG-13736 | AXITINIB | INLYTA | NSC-757441

>  <Withdrawn>  (427) 
{'', 'Study NCT03275558 in Hong Kong was Withdrawn during PHASE1 because Study halted prior to enrollment of first participant (It has been determined on 2018 May 15 that the NCT03275558 study will be stopped by sponsor decision)', 'Study NCT04555603 in United States was Withdrawn during unknown phase because Failed at data quality assurance process before any analyses would be performed', 'Study NCT05263609 in unknown country was Withdrawn during PHASE2 because PI left University', 'Study NCT01441388 in unknown country was Withdrawn during PHASE1 because Business/Operational issues', 'Study NCT04197219 in unknown country was Withdrawn during PHASE2 because PI is leaving institution', 'Study NCT05176288 in unknown country was Withdrawn during PHASE2 because The overall protocol will be changed in a new amendment, which will be resubmitted under the new IND', 'Study NCT03481842 in Switzerland was Withdrawn during PHASE1 because Change in study design and sponsor'}

>  <Indications>  (427) 
Used in kidney cell cancer and investigated for use/treatment in pancreatic and thyroid cancer.

>  <Type>  (427) 
2

>  <targets_id>  (427) 
P17948|P35968|P35916

>  <Inchi>  (427) 
InChI=1S/C22H18N4OS/c1-23-22(27)18-7-2-3-8-21(18)28-16-10-11-17-19(25-26-20(17)14-16)12-9-15-6-4-5-13-24-15/h2-14H,1H3,(H,23,27)(H,25,26)/b12-9+

>  <stdInchikey>  (427) 
RITAVMQDGBJQJZ-FMIVXFBMSA-N

>  <csid>  (427) 
4953153

>  <Links>  (427) 
|http://www.chemspider.com/Chemical-Structure.4953153.html|https://www.ebi.ac.uk/chembldb/compound/inspect/CHEMBL1289926|https://pubchem.ncbi.nlm.nih.gov/compound/6450551|https://go.drugbank.com/drugs/DB06626|https://www.rcsb.org/ligand/AXI|https://www.ebi.ac.uk/pdbe-srv/pdbechem/chemicalCompound/show/AXI|https://www.guidetopharmacology.org/GRAC/LigandDisplayForward?5659|https://zinc15.docking.org/substances/ZINC000003816287|https://precision.fda.gov/uniisearch/srs/unii/C9LVQ0YUXG|https://www.bindingdb.org/bind/chemsearch/marvin/MolStructure.jsp?monomerid=25117

>  <LinkName>  (427) 
|ChemSpider|ChEMBL|PubChem|DrugBank|RCSB|PDBe|Guide to Pharmacology|ZINC|FDA SRS|BindingDB

>  <lig_pdb_ID>  (427) 
AXI

>  <pdb_IDs>  (427) 
4ag8 4agc 4twp 4wa9

>  <indicationDB>  (427) 


>  <uniprotId>  (427) 


>  <indicationG2P>  (427) 
None

>  <MW>  (427) 
386.1

>  <HBA>  (427) 
4

>  <HBD>  (427) 
2

>  <NRB>  (427) 
5

>  <TPSA>  (427) 
70.7

>  <LogP>  (427) 
4.6

>  <RoF>  (427) 
0

>  <Melting point>  (427) 
nan

>  <Targets>  (427) 
FLT1; KDR; FLT4

>  <Kinase families>  (427) 
Tyr

>  <FDA_approved>  (427) 
Y

$$$$
Alpelisib
     RDKit          2D

 30 32  0  0  0  0  0  0  0  0999 V2000
    1.1304   -5.0113    0.0000 C   0  0  0  0  0  0  0  0  0  0  0  0
    0.2568   -3.7919    0.0000 C   0  0  0  0  0  0  0  0  0  0  0  0
    0.7299   -2.3684    0.0000 C   0  0  0  0  0  0  0  0  0  0  0  0
   -0.4777   -1.4787    0.0000 S   0  0  0  0  0  0  0  0  0  0  0  0
   -1.6971   -2.3522    0.0000 C   0  0  0  0  0  0  0  0  0  0  0  0
   -1.2431   -3.7819    0.0000 N   0  0  0  0  0  0  0  0  0  0  0  0
   -3.1206   -1.8792    0.0000 N   0  0  0  0  0  0  0  0  0  0  0  0
   -3.4226   -0.4099    0.0000 C   0  0  0  0  0  0  0  0  0  0  0  0
   -2.3012    0.5863    0.0000 O   0  0  0  0  0  0  0  0  0  0  0  0
   -4.8461    0.0632    0.0000 N   0  0  0  0  0  0  0  0  0  0  0  0
   -6.0655   -0.8104    0.0000 C   0  0  0  0  0  0  0  0  0  0  0  0
   -7.2731    0.0794    0.0000 C   0  0  0  0  0  0  0  0  0  0  0  0
   -6.8000    1.5028    0.0000 C   0  0  0  0  0  0  0  0  0  0  0  0
   -5.3001    1.4928    0.0000 C   0  0  0  0  0  0  0  0  0  0  0  0
   -4.4103    2.7004    0.0000 C   0  0  0  0  0  0  0  0  0  0  0  0
   -2.9196    2.5336    0.0000 O   0  0  0  0  0  0  0  0  0  0  0  0
   -5.0112    4.0748    0.0000 N   0  0  0  0  0  0  0  0  0  0  0  0
    2.1595   -1.9145    0.0000 C   0  0  0  0  0  0  0  0  0  0  0  0
    3.2675   -2.9256    0.0000 C   0  0  0  0  0  0  0  0  0  0  0  0
    4.6972   -2.4716    0.0000 C   0  0  0  0  0  0  0  0  0  0  0  0
    5.0188   -1.0065    0.0000 N   0  0  0  0  0  0  0  0  0  0  0  0
    3.9109    0.0046    0.0000 C   0  0  0  0  0  0  0  0  0  0  0  0
    2.4812   -0.4494    0.0000 C   0  0  0  0  0  0  0  0  0  0  0  0
    4.2325    1.4697    0.0000 C   0  0  0  0  0  0  0  0  0  0  0  0
    2.7674    1.7914    0.0000 C   0  0  0  0  0  0  0  0  0  0  0  0
    5.6976    1.1480    0.0000 C   0  0  0  0  0  0  0  0  0  0  0  0
    4.5542    2.9348    0.0000 C   0  0  0  0  0  0  0  0  0  0  0  0
    4.8759    4.3999    0.0000 F   0  0  0  0  0  0  0  0  0  0  0  0
    3.0891    3.2565    0.0000 F   0  0  0  0  0  0  0  0  0  0  0  0
    6.0193    2.6131    0.0000 F   0  0  0  0  0  0  0  0  0  0  0  0
  1  2  1  0
  2  3  2  0
  3  4  1  0
  4  5  1  0
  5  6  2  0
  5  7  1  0
  7  8  1  0
  8  9  2  0
  8 10  1  0
 10 11  1  0
 11 12  1  0
 12 13  1  0
 13 14  1  0
 14 15  1  1
 15 16  2  0
 15 17  1  0
  3 18  1  0
 18 19  2  0
 19 20  1  0
 20 21  2  0
 21 22  1  0
 22 23  2  0
 22 24  1  0
 24 25  1  0
 24 26  1  0
 24 27  1  0
 27 28  1  0
 27 29  1  0
 27 30  1  0
  6  2  1  0
 14 10  1  0
 23 18  1  0
M  END
>  <BrandName>  (428) 
Piqray;Vijoice

>  <Applicants>  (428) 
Novartis

>  <CHEMBL_ID>  (428) 
CHEMBL2396661

>  <Canonical_Smiles>  (428) 
Cc1c(sc(n1)NC(=O)N2CCC[C@H]2C(=O)N)c3ccnc(c3)C(C)(C)C(F)(F)F

>  <Chirality>  (428) 
Single Stereoisomer

>  <First_Approval>  (428) 
2019

>  <Phase>  (428) 
4.0

>  <SC_Patent>  (428) 
US-8227462-B2

>  <Synonyms>  (428) 
ALPELISIB | BYL-719 | BYL719 | NVP-BYL719 | PIQRAY | VIJOICE

>  <Withdrawn>  (428) 
{'', 'Study NCT05238831 in unknown country was Withdrawn during EARLY_PHASE1 because Withdrawn due to a change in therapeutic interventions', 'Study NCT05967286 in unknown country was Withdrawn during PHASE2 because Other - Protocol moved to Withdrawn', 'Study NCT05472220 in unknown country was Withdrawn during PHASE1 because Sponsor funding'}

>  <Indications>  (428) 
On may 2019, FDA approved alpelisib to treat breast cancer

>  <Type>  (428) 
nan

>  <targets_id>  (428) 
P42336

>  <Inchi>  (428) 
InChI=1S/C19H22F3N5O2S/c1-10-14(11-6-7-24-13(9-11)18(2,3)19(20,21)22)30-16(25-10)26-17(29)27-8-4-5-12(27)15(23)28/h6-7,9,12H,4-5,8H2,1-3H3,(H2,23,28)(H,25,26,29)/t12-/m0/s1

>  <stdInchikey>  (428) 
STUWGJZDJHPWGZ-LBPRGKRZSA-N

>  <csid>  (428) 
28424123

>  <Links>  (428) 
|http://www.chemspider.com/Chemical-Structure.28424123.html|https://www.ebi.ac.uk/chembldb/compound/inspect/CHEMBL2396661|https://pubchem.ncbi.nlm.nih.gov/compound/56649450|https://go.drugbank.com/drugs/DB12015|https://www.rcsb.org/ligand/1LT|https://www.ebi.ac.uk/pdbe-srv/pdbechem/chemicalCompound/show/1LT|https://www.guidetopharmacology.org/GRAC/LigandDisplayForward?7955|https://zinc15.docking.org/substances/ZINC000068198368|https://precision.fda.gov/uniisearch/srs/unii/08W5N2C97Q|https://www.bindingdb.org/bind/chemsearch/marvin/MolStructure.jsp?monomerid=50436459

>  <LinkName>  (428) 
|ChemSpider|ChEMBL|PubChem|DrugBank|RCSB|PDBe|Guide to Pharmacology|ZINC|FDA SRS|BindingDB

>  <lig_pdb_ID>  (428) 
1LT

>  <pdb_IDs>  (428) 
4jps 7myo 7pg6 8gua 8gub 8gud 8v8u 8v8v

>  <indicationDB>  (428) 


>  <uniprotId>  (428) 


>  <indicationG2P>  (428) 
None

>  <MW>  (428) 
441.1

>  <HBA>  (428) 
5

>  <HBD>  (428) 
2

>  <NRB>  (428) 
4

>  <TPSA>  (428) 
101.2

>  <LogP>  (428) 
3.8

>  <RoF>  (428) 
0

>  <Melting point>  (428) 
nan

>  <Targets>  (428) 
PIK3CA

>  <Kinase families>  (428) 
Atypical

>  <FDA_approved>  (428) 
Y

$$$$
Trilaciclib
     RDKit          2D

 33 38  0  0  0  0  0  0  0  0999 V2000
   10.7857   -0.9565    0.0000 C   0  0  0  0  0  0  0  0  0  0  0  0
    9.3243   -0.6187    0.0000 N   0  0  0  0  0  0  0  0  0  0  0  0
    8.3010   -1.7154    0.0000 C   0  0  0  0  0  0  0  0  0  0  0  0
    6.8395   -1.3775    0.0000 C   0  0  0  0  0  0  0  0  0  0  0  0
    6.4014    0.0570    0.0000 N   0  0  0  0  0  0  0  0  0  0  0  0
    7.4247    1.1538    0.0000 C   0  0  0  0  0  0  0  0  0  0  0  0
    8.8862    0.8159    0.0000 C   0  0  0  0  0  0  0  0  0  0  0  0
    4.9399    0.3949    0.0000 C   0  0  0  0  0  0  0  0  0  0  0  0
    4.5018    1.8295    0.0000 C   0  0  0  0  0  0  0  0  0  0  0  0
    3.0403    2.1673    0.0000 C   0  0  0  0  0  0  0  0  0  0  0  0
    2.0170    1.0706    0.0000 C   0  0  0  0  0  0  0  0  0  0  0  0
    2.4551   -0.3640    0.0000 N   0  0  0  0  0  0  0  0  0  0  0  0
    3.9166   -0.7018    0.0000 C   0  0  0  0  0  0  0  0  0  0  0  0
    0.5556    1.4085    0.0000 N   0  0  0  0  0  0  0  0  0  0  0  0
   -0.4678    0.3118    0.0000 C   0  0  0  0  0  0  0  0  0  0  0  0
   -0.0296   -1.1228    0.0000 N   0  0  0  0  0  0  0  0  0  0  0  0
   -1.0530   -2.2196    0.0000 C   0  0  0  0  0  0  0  0  0  0  0  0
   -2.5144   -1.8817    0.0000 C   0  0  0  0  0  0  0  0  0  0  0  0
   -3.7434   -2.7417    0.0000 C   0  0  0  0  0  0  0  0  0  0  0  0
   -4.9411   -1.8386    0.0000 C   0  0  0  0  0  0  0  0  0  0  0  0
   -4.4523   -0.4205    0.0000 N   0  0  0  0  0  0  0  0  0  0  0  0
   -2.9525   -0.4471    0.0000 C   0  0  0  0  0  0  0  0  0  0  0  0
   -1.9292    0.6496    0.0000 N   0  0  0  0  0  0  0  0  0  0  0  0
   -5.4361    0.7119    0.0000 C   0  0  0  0  0  0  0  0  0  0  0  0
   -3.9635    0.9976    0.0000 C   0  0  0  0  0  0  0  0  0  0  0  0
   -3.4748    2.4158    0.0000 C   0  0  0  0  0  0  0  0  0  0  0  0
   -4.4585    3.5481    0.0000 C   0  0  0  0  0  0  0  0  0  0  0  0
   -5.9310    3.2623    0.0000 C   0  0  0  0  0  0  0  0  0  0  0  0
   -6.4198    1.8442    0.0000 C   0  0  0  0  0  0  0  0  0  0  0  0
   -6.9086    0.4261    0.0000 C   0  0  0  0  0  0  0  0  0  0  0  0
   -7.3974   -0.9921    0.0000 N   0  0  0  0  0  0  0  0  0  0  0  0
   -6.4136   -2.1244    0.0000 C   0  0  0  0  0  0  0  0  0  0  0  0
   -6.9024   -3.5425    0.0000 O   0  0  0  0  0  0  0  0  0  0  0  0
  1  2  1  0
  2  3  1  0
  3  4  1  0
  4  5  1  0
  5  6  1  0
  6  7  1  0
  5  8  1  0
  8  9  2  0
  9 10  1  0
 10 11  2  0
 11 12  1  0
 12 13  2  0
 11 14  1  0
 14 15  1  0
 15 16  2  0
 16 17  1  0
 17 18  2  0
 18 19  1  0
 19 20  2  0
 20 21  1  0
 21 22  1  0
 22 23  2  0
 21 24  1  0
 24 25  1  0
 25 26  1  0
 26 27  1  0
 27 28  1  0
 28 29  1  0
 24 30  1  0
 30 31  1  0
 31 32  1  0
 32 33  2  0
  7  2  1  0
 13  8  1  0
 23 15  1  0
 22 18  1  0
 32 20  1  0
 29 24  1  0
M  END
>  <BrandName>  (429) 


>  <Applicants>  (429) 
G1 Therapeutics

>  <CHEMBL_ID>  (429) 
CHEMBL3894860

>  <Canonical_Smiles>  (429) 
CN1CCN(CC1)c2ccc(nc2)Nc3ncc4cc5n(c4n3)C6(CCCCC6)CNC5=O

>  <Chirality>  (429) 
Achiral Molecule

>  <First_Approval>  (429) 
2021

>  <Phase>  (429) 
4.0

>  <SC_Patent>  (429) 
US-8598186-B2;US-8598197-B2

>  <Synonyms>  (429) 
G1T28 | G1T28-1 | TRILACICLIB

>  <Withdrawn>  (429) 
{''}

>  <Indications>  (429) 
On February 2021, FDA approved trilaciclib to mitigate chemotherapy-induced myelosuppression in adult patients with small cell lung cancer

>  <Type>  (429) 
nan

>  <targets_id>  (429) 
P11802|Q00534

>  <Inchi>  (429) 
InChI=1S/C24H30N8O/c1-30-9-11-31(12-10-30)18-5-6-20(25-15-18)28-23-26-14-17-13-19-22(33)27-16-24(7-3-2-4-8-24)32(19)21(17)29-23/h5-6,13-15H,2-4,7-12,16H2,1H3,(H,27,33)(H,25,26,28,29)

>  <stdInchikey>  (429) 
PDGKHKMBHVFCMG-UHFFFAOYSA-N

>  <csid>  (429) 
58825997

>  <Links>  (429) 
|http://www.chemspider.com/Chemical-Structure.58825997.html|https://www.ebi.ac.uk/chembldb/compound/inspect/CHEMBL3894860|https://pubchem.ncbi.nlm.nih.gov/compound/68029831|https://go.drugbank.com/drugs/DB15442|https://www.guidetopharmacology.org/GRAC/LigandDisplayForward?9626|https://precision.fda.gov/uniisearch/srs/unii/U6072DO9XG|https://www.bindingdb.org/bind/chemsearch/marvin/MolStructure.jsp?monomerid=253928

>  <LinkName>  (429) 
|ChemSpider|ChEMBL|PubChem|DrugBank|Guide to Pharmacology|FDA SRS|BindingDB

>  <lig_pdb_ID>  (429) 


>  <pdb_IDs>  (429) 


>  <indicationDB>  (429) 


>  <uniprotId>  (429) 


>  <indicationG2P>  (429) 
None

>  <MW>  (429) 
446.3

>  <HBA>  (429) 
8

>  <HBD>  (429) 
2

>  <NRB>  (429) 
3

>  <TPSA>  (429) 
91.2

>  <LogP>  (429) 
2.7

>  <RoF>  (429) 
0

>  <Melting point>  (429) 
nan

>  <Targets>  (429) 
CDK4; CDK6

>  <Kinase families>  (429) 
CMGC

>  <FDA_approved>  (429) 
Y

$$$$
Encorafenib
     RDKit          2D

 36 38  0  0  0  0  0  0  0  0999 V2000
   -5.9184    3.4437    0.0000 C   0  0  0  0  0  0  0  0  0  0  0  0
   -4.7118    2.5525    0.0000 C   0  0  0  0  0  0  0  0  0  0  0  0
   -3.3368    3.1519    0.0000 C   0  0  0  0  0  0  0  0  0  0  0  0
   -2.1302    2.2607    0.0000 N   0  0  0  0  0  0  0  0  0  0  0  0
   -0.7552    2.8600    0.0000 C   0  0  0  0  0  0  0  0  0  0  0  0
   -0.5867    4.3506    0.0000 N   0  0  0  0  0  0  0  0  0  0  0  0
    0.7884    4.9499    0.0000 C   0  0  0  0  0  0  0  0  0  0  0  0
    1.9950    4.0587    0.0000 C   0  0  0  0  0  0  0  0  0  0  0  0
    1.8265    2.5682    0.0000 C   0  0  0  0  0  0  0  0  0  0  0  0
    0.4514    1.9689    0.0000 N   0  0  0  0  0  0  0  0  0  0  0  0
    3.0331    1.6771    0.0000 C   0  0  0  0  0  0  0  0  0  0  0  0
    4.4632    2.1294    0.0000 C   0  0  0  0  0  0  0  0  0  0  0  0
    5.3354    0.9090    0.0000 N   0  0  0  0  0  0  0  0  0  0  0  0
    4.4442   -0.2976    0.0000 N   0  0  0  0  0  0  0  0  0  0  0  0
    3.0213    0.1771    0.0000 C   0  0  0  0  0  0  0  0  0  0  0  0
    1.8009   -0.6950    0.0000 C   0  0  0  0  0  0  0  0  0  0  0  0
    0.4354   -0.0742    0.0000 C   0  0  0  0  0  0  0  0  0  0  0  0
   -0.7850   -0.9463    0.0000 C   0  0  0  0  0  0  0  0  0  0  0  0
   -0.6399   -2.4393    0.0000 C   0  0  0  0  0  0  0  0  0  0  0  0
    0.7256   -3.0601    0.0000 C   0  0  0  0  0  0  0  0  0  0  0  0
    1.9460   -2.1880    0.0000 C   0  0  0  0  0  0  0  0  0  0  0  0
    3.3115   -2.8088    0.0000 F   0  0  0  0  0  0  0  0  0  0  0  0
    0.8707   -4.5531    0.0000 N   0  0  0  0  0  0  0  0  0  0  0  0
   -0.3497   -5.4252    0.0000 S   0  0  0  0  0  0  0  0  0  0  0  0
   -1.2219   -4.2048    0.0000 O   0  0  0  0  0  0  0  0  0  0  0  0
    0.5224   -6.6456    0.0000 O   0  0  0  0  0  0  0  0  0  0  0  0
   -1.5701   -6.2974    0.0000 C   0  0  0  0  0  0  0  0  0  0  0  0
   -2.1505   -0.3255    0.0000 Cl  0  0  0  0  0  0  0  0  0  0  0  0
    6.8353    0.8972    0.0000 C   0  0  0  0  0  0  0  0  0  0  0  0
    7.5751   -0.4077    0.0000 C   0  0  0  0  0  0  0  0  0  0  0  0
    7.5955    2.1903    0.0000 C   0  0  0  0  0  0  0  0  0  0  0  0
   -4.8803    1.0620    0.0000 N   0  0  0  0  0  0  0  0  0  0  0  0
   -6.2554    0.4627    0.0000 C   0  0  0  0  0  0  0  0  0  0  0  0
   -7.4620    1.3538    0.0000 O   0  0  0  0  0  0  0  0  0  0  0  0
   -6.4239   -1.0278    0.0000 O   0  0  0  0  0  0  0  0  0  0  0  0
   -7.7989   -1.6272    0.0000 C   0  0  0  0  0  0  0  0  0  0  0  0
  2  1  1  1
  2  3  1  0
  3  4  1  0
  4  5  1  0
  5  6  2  0
  6  7  1  0
  7  8  2  0
  8  9  1  0
  9 10  2  0
  9 11  1  0
 11 12  2  0
 12 13  1  0
 13 14  1  0
 14 15  2  0
 15 16  1  0
 16 17  2  0
 17 18  1  0
 18 19  2  0
 19 20  1  0
 20 21  2  0
 21 22  1  0
 20 23  1  0
 23 24  1  0
 24 25  2  0
 24 26  2  0
 24 27  1  0
 18 28  1  0
 13 29  1  0
 29 30  1  0
 29 31  1  0
  2 32  1  0
 32 33  1  0
 33 34  2  0
 33 35  1  0
 35 36  1  0
 10  5  1  0
 15 11  1  0
 21 16  1  0
M  END
>  <BrandName>  (430) 
Braftovi

>  <Applicants>  (430) 
Novartis

>  <CHEMBL_ID>  (430) 
CHEMBL3301612

>  <Canonical_Smiles>  (430) 
C[C@@H](CNc1nccc(n1)c2cn(nc2c3cc(cc(c3F)NS(=O)(=O)C)Cl)C(C)C)NC(=O)OC

>  <Chirality>  (430) 
Single Stereoisomer

>  <First_Approval>  (430) 
2018

>  <Phase>  (430) 
4.0

>  <SC_Patent>  (430) 
US-8501758-B2

>  <Synonyms>  (430) 
BRAFTOVI | ENCORAFENIB | LGX-818 | LGX818 | NVP-LGX-818-NXA | NVP-LGX818 | NVP-LGX818-NXA

>  <Withdrawn>  (430) 
{''}

>  <Indications>  (430) 
On June 27, 2018, the Food and Drug Administration approved encorafenib and binimetinib in combination patients with unresectable or metastatic melanoma with a BRAF V600E or V600K mutation, as detected by an FDA-approved test.

>  <Type>  (430) 
nan

>  <targets_id>  (430) 
P15056

>  <Inchi>  (430) 
InChI=1S/C22H27ClFN7O4S/c1-12(2)31-11-16(17-6-7-25-21(28-17)26-10-13(3)27-22(32)35-4)20(29-31)15-8-14(23)9-18(19(15)24)30-36(5,33)34/h6-9,11-13,30H,10H2,1-5H3,(H,27,32)(H,25,26,28)/t13-/m0/s1

>  <stdInchikey>  (430) 
CMJCXYNUCSMDBY-ZDUSSCGKSA-N

>  <csid>  (430) 
28536139

>  <Links>  (430) 
|http://www.chemspider.com/Chemical-Structure.28536139.html|https://www.ebi.ac.uk/chembldb/compound/inspect/CHEMBL3301612|https://pubchem.ncbi.nlm.nih.gov/compound/50922675|https://go.drugbank.com/drugs/DB11718|https://www.guidetopharmacology.org/GRAC/LigandDisplayForward?7908|https://zinc15.docking.org/substances/ZINC000068249103|https://precision.fda.gov/uniisearch/srs/unii/8L7891MRB6|https://www.bindingdb.org/bind/chemsearch/marvin/MolStructure.jsp?monomerid=221688

>  <LinkName>  (430) 
|ChemSpider|ChEMBL|PubChem|DrugBank|Guide to Pharmacology|ZINC|FDA SRS|BindingDB

>  <lig_pdb_ID>  (430) 


>  <pdb_IDs>  (430) 


>  <indicationDB>  (430) 


>  <uniprotId>  (430) 


>  <indicationG2P>  (430) 
None

>  <MW>  (430) 
539.2

>  <HBA>  (430) 
9

>  <HBD>  (430) 
3

>  <NRB>  (430) 
9

>  <TPSA>  (430) 
140.1

>  <LogP>  (430) 
3.9

>  <RoF>  (430) 
1

>  <Melting point>  (430) 
nan

>  <Targets>  (430) 
BRAF

>  <Kinase families>  (430) 
TKL

>  <FDA_approved>  (430) 
Y

$$$$
Idelalisib
     RDKit          2D

 31 35  0  0  0  0  0  0  0  0999 V2000
   -2.3225    2.1148    0.0000 C   0  0  0  0  0  0  0  0  0  0  0  0
   -0.9021    1.6326    0.0000 C   0  0  0  0  0  0  0  0  0  0  0  0
   -0.6095    0.1615    0.0000 C   0  0  0  0  0  0  0  0  0  0  0  0
    0.8109   -0.3207    0.0000 C   0  0  0  0  0  0  0  0  0  0  0  0
    1.1035   -1.7919    0.0000 N   0  0  0  0  0  0  0  0  0  0  0  0
    2.5239   -2.2741    0.0000 C   0  0  0  0  0  0  0  0  0  0  0  0
    2.8166   -3.7452    0.0000 C   0  0  0  0  0  0  0  0  0  0  0  0
    4.2369   -4.2274    0.0000 C   0  0  0  0  0  0  0  0  0  0  0  0
    5.3647   -3.2384    0.0000 C   0  0  0  0  0  0  0  0  0  0  0  0
    5.0721   -1.7672    0.0000 C   0  0  0  0  0  0  0  0  0  0  0  0
    3.6517   -1.2851    0.0000 C   0  0  0  0  0  0  0  0  0  0  0  0
    3.3591    0.1861    0.0000 C   0  0  0  0  0  0  0  0  0  0  0  0
    4.4868    1.1751    0.0000 O   0  0  0  0  0  0  0  0  0  0  0  0
    1.9387    0.6683    0.0000 N   0  0  0  0  0  0  0  0  0  0  0  0
    1.6461    2.1395    0.0000 C   0  0  0  0  0  0  0  0  0  0  0  0
    2.7738    3.1285    0.0000 C   0  0  0  0  0  0  0  0  0  0  0  0
    2.4812    4.5997    0.0000 C   0  0  0  0  0  0  0  0  0  0  0  0
    1.0608    5.0818    0.0000 C   0  0  0  0  0  0  0  0  0  0  0  0
   -0.0670    4.0928    0.0000 C   0  0  0  0  0  0  0  0  0  0  0  0
    0.2257    2.6216    0.0000 C   0  0  0  0  0  0  0  0  0  0  0  0
    6.1999   -0.7782    0.0000 F   0  0  0  0  0  0  0  0  0  0  0  0
   -1.7372   -0.8276    0.0000 N   0  0  0  0  0  0  0  0  0  0  0  0
   -3.1576   -0.3454    0.0000 C   0  0  0  0  0  0  0  0  0  0  0  0
   -4.2854   -1.3344    0.0000 C   0  0  0  0  0  0  0  0  0  0  0  0
   -5.7058   -0.8522    0.0000 C   0  0  0  0  0  0  0  0  0  0  0  0
   -6.6033   -2.0541    0.0000 N   0  0  0  0  0  0  0  0  0  0  0  0
   -5.7376   -3.2791    0.0000 C   0  0  0  0  0  0  0  0  0  0  0  0
   -4.3050   -2.8343    0.0000 N   0  0  0  0  0  0  0  0  0  0  0  0
   -5.9984    0.6190    0.0000 N   0  0  0  0  0  0  0  0  0  0  0  0
   -4.8707    1.6080    0.0000 C   0  0  0  0  0  0  0  0  0  0  0  0
   -3.4503    1.1258    0.0000 N   0  0  0  0  0  0  0  0  0  0  0  0
  1  2  1  0
  3  2  1  1
  3  4  1  0
  4  5  2  0
  5  6  1  0
  6  7  2  0
  7  8  1  0
  8  9  2  0
  9 10  1  0
 10 11  2  0
 11 12  1  0
 12 13  2  0
 12 14  1  0
 14 15  1  0
 15 16  2  0
 16 17  1  0
 17 18  2  0
 18 19  1  0
 19 20  2  0
 10 21  1  0
  3 22  1  0
 22 23  1  0
 23 24  1  0
 24 25  2  0
 25 26  1  0
 26 27  1  0
 27 28  2  0
 25 29  1  0
 29 30  2  0
 30 31  1  0
 14  4  1  0
 11  6  1  0
 20 15  1  0
 31 23  2  0
 28 24  1  0
M  END
>  <BrandName>  (431) 
Zydelig

>  <Applicants>  (431) 
Gilead Sciences

>  <CHEMBL_ID>  (431) 
CHEMBL2216870

>  <Canonical_Smiles>  (431) 
CC[C@@H](c1nc2cccc(c2c(=O)n1c3ccccc3)F)Nc4c5c([nH]cn5)ncn4

>  <Chirality>  (431) 
Single Stereoisomer

>  <First_Approval>  (431) 
2014

>  <Phase>  (431) 
4.0

>  <SC_Patent>  (431) 
US-RE44599-E1

>  <Synonyms>  (431) 
CAL-101 | GS-1101 | GS-11CAL-101 | IDELALISIB | ZYDELIG

>  <Withdrawn>  (431) 
{'', 'Study NCT02662296 in United States was Withdrawn during PHASE2 because Low enrollment'}

>  <Indications>  (431) 
Idelalisib is indicated in the treatment of chronic lymphocytic leukemia (CLL), relapsed follicular B-cell non-Hodgkin lymphoma (FL), and relapsed small lymphocytic lymphoma (SLL). For the treatment of relapsed CLL, it is currently indicated as a second-line agent in combination with rituximab in patients for whom rituximab alone would be considered appropriate therapy due to other co-morbidities, while in the treatment of FL and SLL it is intended to be used in patients who have received at least two prior systemic therapies.

>  <Type>  (431) 
1

>  <targets_id>  (431) 
O00329

>  <Inchi>  (431) 
InChI=1S/C22H18FN7O/c1-2-15(28-20-18-19(25-11-24-18)26-12-27-20)21-29-16-10-6-9-14(23)17(16)22(31)30(21)13-7-4-3-5-8-13/h3-12,15H,2H2,1H3,(H2,24,25,26,27,28)/t15-/m0/s1

>  <stdInchikey>  (431) 
IFSDAJWBUCMOAH-HNNXBMFYSA-N

>  <csid>  (431) 
9800565

>  <Links>  (431) 
|http://www.chemspider.com/Chemical-Structure.9800565.html|https://www.ebi.ac.uk/chembldb/compound/inspect/CHEMBL2216870|https://pubchem.ncbi.nlm.nih.gov/compound/11625818|https://go.drugbank.com/drugs/DB09054|https://www.rcsb.org/ligand/40L|https://www.ebi.ac.uk/pdbe-srv/pdbechem/chemicalCompound/show/40L|https://www.guidetopharmacology.org/GRAC/LigandDisplayForward?6741|https://zinc15.docking.org/substances/ZINC000013986658|https://precision.fda.gov/uniisearch/srs/unii/YG57I8T5M0|https://www.bindingdb.org/bind/chemsearch/marvin/MolStructure.jsp?monomerid=50403068

>  <LinkName>  (431) 
|ChemSpider|ChEMBL|PubChem|DrugBank|RCSB|PDBe|Guide to Pharmacology|ZINC|FDA SRS|BindingDB

>  <lig_pdb_ID>  (431) 
40L

>  <pdb_IDs>  (431) 
4xe0

>  <indicationDB>  (431) 


>  <uniprotId>  (431) 


>  <indicationG2P>  (431) 
None

>  <MW>  (431) 
415.2

>  <HBA>  (431) 
7

>  <HBD>  (431) 
2

>  <NRB>  (431) 
5

>  <TPSA>  (431) 
101.4

>  <LogP>  (431) 
3.8

>  <RoF>  (431) 
0

>  <Melting point>  (431) 
nan

>  <Targets>  (431) 
PIK3CD

>  <Kinase families>  (431) 
Atypical

>  <FDA_approved>  (431) 
Y

$$$$
Filgotinib
     RDKit          2D

 30 34  0  0  0  0  0  0  0  0999 V2000
    3.3409   -4.5122    0.0000 C   0  0  0  0  0  0  0  0  0  0  0  0
    1.8675   -4.2306    0.0000 C   0  0  0  0  0  0  0  0  0  0  0  0
    1.3747   -2.8139    0.0000 C   0  0  0  0  0  0  0  0  0  0  0  0
    2.3552   -1.6787    0.0000 N   0  0  0  0  0  0  0  0  0  0  0  0
    3.8286   -1.9603    0.0000 C   0  0  0  0  0  0  0  0  0  0  0  0
    4.3214   -3.3770    0.0000 C   0  0  0  0  0  0  0  0  0  0  0  0
    4.5517   -0.6461    0.0000 N   0  0  0  0  0  0  0  0  0  0  0  0
    3.5252    0.4477    0.0000 C   0  0  0  0  0  0  0  0  0  0  0  0
    2.1678   -0.1905    0.0000 N   0  0  0  0  0  0  0  0  0  0  0  0
    3.8068    1.9211    0.0000 N   0  0  0  0  0  0  0  0  0  0  0  0
    5.2235    2.4139    0.0000 C   0  0  0  0  0  0  0  0  0  0  0  0
    6.3587    1.4333    0.0000 O   0  0  0  0  0  0  0  0  0  0  0  0
    5.5051    3.8872    0.0000 C   0  0  0  0  0  0  0  0  0  0  0  0
    5.0123    5.3039    0.0000 C   0  0  0  0  0  0  0  0  0  0  0  0
    6.4856    5.0224    0.0000 C   0  0  0  0  0  0  0  0  0  0  0  0
   -0.0986   -2.5323    0.0000 C   0  0  0  0  0  0  0  0  0  0  0  0
   -0.5914   -1.1155    0.0000 C   0  0  0  0  0  0  0  0  0  0  0  0
   -2.0648   -0.8340    0.0000 C   0  0  0  0  0  0  0  0  0  0  0  0
   -3.0453   -1.9691    0.0000 C   0  0  0  0  0  0  0  0  0  0  0  0
   -2.5525   -3.3859    0.0000 C   0  0  0  0  0  0  0  0  0  0  0  0
   -1.0791   -3.6674    0.0000 C   0  0  0  0  0  0  0  0  0  0  0  0
   -4.5186   -1.6875    0.0000 C   0  0  0  0  0  0  0  0  0  0  0  0
   -5.0114   -0.2708    0.0000 N   0  0  0  0  0  0  0  0  0  0  0  0
   -4.0309    0.8643    0.0000 C   0  0  0  0  0  0  0  0  0  0  0  0
   -4.5237    2.2811    0.0000 C   0  0  0  0  0  0  0  0  0  0  0  0
   -5.9971    2.5627    0.0000 S   0  0  0  0  0  0  0  0  0  0  0  0
   -7.2852    3.3312    0.0000 O   0  0  0  0  0  0  0  0  0  0  0  0
   -5.4639    3.9647    0.0000 O   0  0  0  0  0  0  0  0  0  0  0  0
   -6.9776    1.4275    0.0000 C   0  0  0  0  0  0  0  0  0  0  0  0
   -6.4848    0.0108    0.0000 C   0  0  0  0  0  0  0  0  0  0  0  0
  1  2  1  0
  2  3  2  0
  3  4  1  0
  4  5  1  0
  5  6  1  0
  5  7  2  0
  7  8  1  0
  8  9  2  0
  8 10  1  0
 10 11  1  0
 11 12  2  0
 11 13  1  0
 13 14  1  0
 14 15  1  0
  3 16  1  0
 16 17  2  0
 17 18  1  0
 18 19  2  0
 19 20  1  0
 20 21  2  0
 19 22  1  0
 22 23  1  0
 23 24  1  0
 24 25  1  0
 25 26  1  0
 26 27  2  0
 26 28  2  0
 26 29  1  0
 29 30  1  0
  6  1  2  0
  9  4  1  0
 15 13  1  0
 21 16  1  0
 30 23  1  0
M  END
>  <BrandName>  (432) 


>  <Applicants>  (432) 
Galapagos

>  <CHEMBL_ID>  (432) 
CHEMBL3301607

>  <Canonical_Smiles>  (432) 
c1cc(n2c(c1)nc(n2)NC(=O)C3CC3)c4ccc(cc4)CN5CCS(=O)(=O)CC5

>  <Chirality>  (432) 
Achiral Molecule

>  <First_Approval>  (432) 
nan

>  <Phase>  (432) 
4.0

>  <SC_Patent>  (432) 
nan

>  <Synonyms>  (432) 
FILGOTINIB | G-146034 | G146034 | GLPG-0634 | GLPG0634 | GS-6034 FREE BASE

>  <Withdrawn>  (432) 
{''}

>  <Indications>  (432) 
nan

>  <Type>  (432) 
1

>  <targets_id>  (432) 
P23458

>  <Inchi>  (432) 
InChI=1S/C21H23N5O3S/c27-20(17-8-9-17)23-21-22-19-3-1-2-18(26(19)24-21)16-6-4-15(5-7-16)14-25-10-12-30(28,29)13-11-25/h1-7,17H,8-14H2,(H,23,24,27)

>  <stdInchikey>  (432) 
RIJLVEAXPNLDTC-UHFFFAOYSA-N

>  <csid>  (432) 
28189566

>  <Links>  (432) 
|http://www.chemspider.com/Chemical-Structure.28189566.html|https://www.ebi.ac.uk/chembldb/compound/inspect/CHEMBL3301607|https://pubchem.ncbi.nlm.nih.gov/compound/49831257|https://go.drugbank.com/drugs/DB14845|https://www.rcsb.org/ligand/2HB|https://www.ebi.ac.uk/pdbe-srv/pdbechem/chemicalCompound/show/2HB|https://www.guidetopharmacology.org/GRAC/LigandDisplayForward?7913|https://zinc15.docking.org/substances/ZINC000096174616|https://precision.fda.gov/uniisearch/srs/unii/3XVL385Q0M|https://www.bindingdb.org/bind/chemsearch/marvin/MolStructure.jsp?monomerid=103727

>  <LinkName>  (432) 
|ChemSpider|ChEMBL|PubChem|DrugBank|RCSB|PDBe|Guide to Pharmacology|ZINC|FDA SRS|BindingDB

>  <lig_pdb_ID>  (432) 
2HB

>  <pdb_IDs>  (432) 
4p7e 5ut5

>  <indicationDB>  (432) 


>  <uniprotId>  (432) 


>  <indicationG2P>  (432) 
None

>  <MW>  (432) 
425.2

>  <HBA>  (432) 
7

>  <HBD>  (432) 
1

>  <NRB>  (432) 
5

>  <TPSA>  (432) 
96.7

>  <LogP>  (432) 
2.0

>  <RoF>  (432) 
0

>  <Melting point>  (432) 
nan

>  <Targets>  (432) 
JAK1

>  <Kinase families>  (432) 
Tyr

>  <FDA_approved>  (432) 
N

$$$$
Flumatinib
     RDKit          2D

 41 45  0  0  0  0  0  0  0  0999 V2000
   -4.4877   -5.2701    0.0000 C   0  0  0  0  0  0  0  0  0  0  0  0
   -3.3225   -4.3254    0.0000 C   0  0  0  0  0  0  0  0  0  0  0  0
   -3.5580   -2.8440    0.0000 C   0  0  0  0  0  0  0  0  0  0  0  0
   -2.3929   -1.8993    0.0000 C   0  0  0  0  0  0  0  0  0  0  0  0
   -0.9922   -2.4360    0.0000 C   0  0  0  0  0  0  0  0  0  0  0  0
   -0.7567   -3.9174    0.0000 C   0  0  0  0  0  0  0  0  0  0  0  0
   -1.9218   -4.8621    0.0000 N   0  0  0  0  0  0  0  0  0  0  0  0
    0.1730   -1.4913    0.0000 N   0  0  0  0  0  0  0  0  0  0  0  0
    1.5736   -2.0281    0.0000 C   0  0  0  0  0  0  0  0  0  0  0  0
    1.8092   -3.5094    0.0000 O   0  0  0  0  0  0  0  0  0  0  0  0
    2.7388   -1.0834    0.0000 C   0  0  0  0  0  0  0  0  0  0  0  0
    4.1395   -1.6201    0.0000 C   0  0  0  0  0  0  0  0  0  0  0  0
    5.3046   -0.6754    0.0000 C   0  0  0  0  0  0  0  0  0  0  0  0
    5.0691    0.8060    0.0000 C   0  0  0  0  0  0  0  0  0  0  0  0
    3.6684    1.3427    0.0000 C   0  0  0  0  0  0  0  0  0  0  0  0
    2.5033    0.3980    0.0000 C   0  0  0  0  0  0  0  0  0  0  0  0
    3.4329    2.8241    0.0000 C   0  0  0  0  0  0  0  0  0  0  0  0
    3.1973    4.3055    0.0000 F   0  0  0  0  0  0  0  0  0  0  0  0
    1.9515    2.5885    0.0000 F   0  0  0  0  0  0  0  0  0  0  0  0
    4.9143    3.0596    0.0000 F   0  0  0  0  0  0  0  0  0  0  0  0
    6.2343    1.7507    0.0000 C   0  0  0  0  0  0  0  0  0  0  0  0
    7.6350    1.2139    0.0000 N   0  0  0  0  0  0  0  0  0  0  0  0
    7.8705   -0.2675    0.0000 C   0  0  0  0  0  0  0  0  0  0  0  0
    9.2712   -0.8042    0.0000 C   0  0  0  0  0  0  0  0  0  0  0  0
   10.4363    0.1405    0.0000 N   0  0  0  0  0  0  0  0  0  0  0  0
   10.2008    1.6219    0.0000 C   0  0  0  0  0  0  0  0  0  0  0  0
    8.8001    2.1586    0.0000 C   0  0  0  0  0  0  0  0  0  0  0  0
   11.8370   -0.3962    0.0000 C   0  0  0  0  0  0  0  0  0  0  0  0
   -4.9587   -2.3073    0.0000 N   0  0  0  0  0  0  0  0  0  0  0  0
   -5.1943   -0.8259    0.0000 C   0  0  0  0  0  0  0  0  0  0  0  0
   -4.0291    0.1188    0.0000 N   0  0  0  0  0  0  0  0  0  0  0  0
   -4.2647    1.6002    0.0000 C   0  0  0  0  0  0  0  0  0  0  0  0
   -5.6653    2.1369    0.0000 C   0  0  0  0  0  0  0  0  0  0  0  0
   -6.8305    1.1922    0.0000 C   0  0  0  0  0  0  0  0  0  0  0  0
   -6.5950   -0.2892    0.0000 N   0  0  0  0  0  0  0  0  0  0  0  0
   -8.2312    1.7289    0.0000 C   0  0  0  0  0  0  0  0  0  0  0  0
   -8.4667    3.2103    0.0000 C   0  0  0  0  0  0  0  0  0  0  0  0
   -9.8674    3.7470    0.0000 C   0  0  0  0  0  0  0  0  0  0  0  0
  -11.0326    2.8024    0.0000 C   0  0  0  0  0  0  0  0  0  0  0  0
  -10.7970    1.3210    0.0000 N   0  0  0  0  0  0  0  0  0  0  0  0
   -9.3963    0.7843    0.0000 C   0  0  0  0  0  0  0  0  0  0  0  0
  1  2  1  0
  2  3  2  0
  3  4  1  0
  4  5  2  0
  5  6  1  0
  6  7  2  0
  5  8  1  0
  8  9  1  0
  9 10  2  0
  9 11  1  0
 11 12  2  0
 12 13  1  0
 13 14  2  0
 14 15  1  0
 15 16  2  0
 15 17  1  0
 17 18  1  0
 17 19  1  0
 17 20  1  0
 14 21  1  0
 21 22  1  0
 22 23  1  0
 23 24  1  0
 24 25  1  0
 25 26  1  0
 26 27  1  0
 25 28  1  0
  3 29  1  0
 29 30  1  0
 30 31  2  0
 31 32  1  0
 32 33  2  0
 33 34  1  0
 34 35  2  0
 34 36  1  0
 36 37  2  0
 37 38  1  0
 38 39  2  0
 39 40  1  0
 40 41  2  0
  7  2  1  0
 16 11  1  0
 27 22  1  0
 35 30  1  0
 41 36  1  0
M  END
>  <BrandName>  (433) 


>  <Applicants>  (433) 
Jiangsu Hengrui Medicine

>  <CHEMBL_ID>  (433) 
nan

>  <Canonical_Smiles>  (433) 
Cc1c(cc(cn1)NC(=O)c2ccc(c(c2)C(F)(F)F)CN3CCN(CC3)C)Nc4nccc(n4)c5cccnc5

>  <Chirality>  (433) 
nan

>  <First_Approval>  (433) 
nan

>  <Phase>  (433) 
4.0

>  <SC_Patent>  (433) 
nan

>  <Synonyms>  (433) 
FLUMATINIB | FLUMBATINIB | HH-GV678 | HHGV-678

>  <Withdrawn>  (433) 
{''}

>  <Indications>  (433) 
nan

>  <Type>  (433) 
nan

>  <targets_id>  (433) 
P11274|P00519|P09619|P10721

>  <Inchi>  (433) 
InChI=1S/C29H29F3N8O/c1-19-26(38-28-34-9-7-25(37-28)21-4-3-8-33-16-21)15-23(17-35-19)36-27(41)20-5-6-22(24(14-20)29(30,31)32)18-40-12-10-39(2)11-13-40/h3-9,14-17H,10-13,18H2,1-2H3,(H,36,41)(H,34,37,38)

>  <stdInchikey>  (433) 
BJCJYEYYYGBROF-UHFFFAOYSA-N

>  <csid>  (433) 
25069687

>  <Links>  (433) 
|http://www.chemspider.com/Chemical-Structure.25069687.html|https://www.ebi.ac.uk/chembldb/compound/inspect/CHEMBL3545413|https://pubchem.ncbi.nlm.nih.gov/compound/46848036|https://go.drugbank.com/drugs/DB11904|https://www.guidetopharmacology.org/GRAC/LigandDisplayForward?9913|https://zinc15.docking.org/substances/ZINC000068244727|https://precision.fda.gov/uniisearch/srs/unii/R4009Y24AI|https://www.bindingdb.org/bind/chemsearch/marvin/MolStructure.jsp?monomerid=50529313

>  <LinkName>  (433) 
|ChemSpider|ChEMBL|PubChem|DrugBank|Guide to Pharmacology|ZINC|FDA SRS|BindingDB

>  <lig_pdb_ID>  (433) 


>  <pdb_IDs>  (433) 


>  <indicationDB>  (433) 


>  <uniprotId>  (433) 


>  <indicationG2P>  (433) 
None

>  <MW>  (433) 
562.2

>  <HBA>  (433) 
8

>  <HBD>  (433) 
2

>  <NRB>  (433) 
7

>  <TPSA>  (433) 
99.2

>  <LogP>  (433) 
5.0

>  <RoF>  (433) 
2

>  <Melting point>  (433) 
nan

>  <Targets>  (433) 
BCR; ABL1; PDGFRB; KIT

>  <Kinase families>  (433) 
Tyr<br>Atypical

>  <FDA_approved>  (433) 
N

$$$$
Gefitinib
     RDKit          2D

 31 34  0  0  0  0  0  0  0  0999 V2000
   -1.3428    6.3344    0.0000 C   0  0  0  0  0  0  0  0  0  0  0  0
   -1.6883    4.8748    0.0000 O   0  0  0  0  0  0  0  0  0  0  0  0
   -0.5969    3.8457    0.0000 C   0  0  0  0  0  0  0  0  0  0  0  0
    0.8399    4.2764    0.0000 C   0  0  0  0  0  0  0  0  0  0  0  0
    1.9313    3.2473    0.0000 C   0  0  0  0  0  0  0  0  0  0  0  0
    1.5858    1.7876    0.0000 C   0  0  0  0  0  0  0  0  0  0  0  0
    0.1489    1.3570    0.0000 C   0  0  0  0  0  0  0  0  0  0  0  0
   -0.9424    2.3861    0.0000 C   0  0  0  0  0  0  0  0  0  0  0  0
   -2.3793    1.9554    0.0000 O   0  0  0  0  0  0  0  0  0  0  0  0
   -2.7248    0.4958    0.0000 C   0  0  0  0  0  0  0  0  0  0  0  0
   -4.1616    0.0651    0.0000 C   0  0  0  0  0  0  0  0  0  0  0  0
   -4.5071   -1.3945    0.0000 C   0  0  0  0  0  0  0  0  0  0  0  0
   -5.9440   -1.8252    0.0000 N   0  0  0  0  0  0  0  0  0  0  0  0
   -7.0353   -0.7961    0.0000 C   0  0  0  0  0  0  0  0  0  0  0  0
   -8.4722   -1.2268    0.0000 C   0  0  0  0  0  0  0  0  0  0  0  0
   -8.8177   -2.6864    0.0000 O   0  0  0  0  0  0  0  0  0  0  0  0
   -7.7263   -3.7155    0.0000 C   0  0  0  0  0  0  0  0  0  0  0  0
   -6.2895   -3.2848    0.0000 C   0  0  0  0  0  0  0  0  0  0  0  0
    2.6772    0.7586    0.0000 C   0  0  0  0  0  0  0  0  0  0  0  0
    4.1140    1.1892    0.0000 N   0  0  0  0  0  0  0  0  0  0  0  0
    4.4595    2.6489    0.0000 C   0  0  0  0  0  0  0  0  0  0  0  0
    3.3682    3.6779    0.0000 N   0  0  0  0  0  0  0  0  0  0  0  0
    2.3317   -0.7011    0.0000 N   0  0  0  0  0  0  0  0  0  0  0  0
    3.4230   -1.7301    0.0000 C   0  0  0  0  0  0  0  0  0  0  0  0
    3.0775   -3.1898    0.0000 C   0  0  0  0  0  0  0  0  0  0  0  0
    4.1689   -4.2188    0.0000 C   0  0  0  0  0  0  0  0  0  0  0  0
    5.6058   -3.7882    0.0000 C   0  0  0  0  0  0  0  0  0  0  0  0
    5.9513   -2.3285    0.0000 C   0  0  0  0  0  0  0  0  0  0  0  0
    4.8599   -1.2995    0.0000 C   0  0  0  0  0  0  0  0  0  0  0  0
    7.3881   -1.8979    0.0000 Cl  0  0  0  0  0  0  0  0  0  0  0  0
    6.6971   -4.8172    0.0000 F   0  0  0  0  0  0  0  0  0  0  0  0
  1  2  1  0
  2  3  1  0
  3  4  2  0
  4  5  1  0
  5  6  2  0
  6  7  1  0
  7  8  2  0
  8  9  1  0
  9 10  1  0
 10 11  1  0
 11 12  1  0
 12 13  1  0
 13 14  1  0
 14 15  1  0
 15 16  1  0
 16 17  1  0
 17 18  1  0
  6 19  1  0
 19 20  2  0
 20 21  1  0
 21 22  2  0
 19 23  1  0
 23 24  1  0
 24 25  2  0
 25 26  1  0
 26 27  2  0
 27 28  1  0
 28 29  2  0
 28 30  1  0
 27 31  1  0
  8  3  1  0
 22  5  1  0
 18 13  1  0
 29 24  1  0
M  END
>  <BrandName>  (434) 
Iressa

>  <Applicants>  (434) 
Astrazeneca

>  <CHEMBL_ID>  (434) 
CHEMBL939

>  <Canonical_Smiles>  (434) 
COc1cc2c(cc1OCCCN3CCOCC3)c(ncn2)Nc4ccc(c(c4)Cl)F

>  <Chirality>  (434) 
Achiral Molecule

>  <First_Approval>  (434) 
2003

>  <Phase>  (434) 
4.0

>  <SC_Patent>  (434) 
nan

>  <Synonyms>  (434) 
GEFITINIB | IRESSA | NSC-759856 | ZD-1839 | ZD1839

>  <Withdrawn>  (434) 
{'', 'Study NCT00268255 in unknown country was Withdrawn during PHASE1 because Study never moved forward with accrual', 'Study NCT00048087 in United States was Withdrawn during PHASE2 because Slow accrual', 'Study NCT03529084 in unknown country was Withdrawn during PHASE3 because Decision by Sponsor not to continue with the trial', 'Study NCT00098462 in unknown country was Withdrawn during PHASE1 because Withdrawn as study never opened'}

>  <Indications>  (434) 
For the continued treatment of patients with locally advanced or metastatic non-small cell lung cancer after failure of either platinum-based or docetaxel chemotherapies.

>  <Type>  (434) 
1.5

>  <targets_id>  (434) 
P00533

>  <Inchi>  (434) 
InChI=1S/C22H24ClFN4O3/c1-29-20-13-19-16(12-21(20)31-8-2-5-28-6-9-30-10-7-28)22(26-14-25-19)27-15-3-4-18(24)17(23)11-15/h3-4,11-14H,2,5-10H2,1H3,(H,25,26,27)

>  <stdInchikey>  (434) 
XGALLCVXEZPNRQ-UHFFFAOYSA-N

>  <csid>  (434) 
110217

>  <Links>  (434) 
|http://www.chemspider.com/Chemical-Structure.110217.html|https://www.ebi.ac.uk/chembldb/compound/inspect/CHEMBL939|https://pubchem.ncbi.nlm.nih.gov/compound/123631|https://go.drugbank.com/drugs/DB00317|https://www.rcsb.org/ligand/IRE|https://www.ebi.ac.uk/pdbe-srv/pdbechem/chemicalCompound/show/IRE|https://www.guidetopharmacology.org/GRAC/LigandDisplayForward?4941|https://zinc15.docking.org/substances/ZINC000019632614|https://precision.fda.gov/uniisearch/srs/unii/S65743JHBS|https://www.bindingdb.org/bind/chemsearch/marvin/MolStructure.jsp?monomerid=5447

>  <LinkName>  (434) 
|ChemSpider|ChEMBL|PubChem|DrugBank|RCSB|PDBe|Guide to Pharmacology|ZINC|FDA SRS|BindingDB

>  <lig_pdb_ID>  (434) 
IRE

>  <pdb_IDs>  (434) 
2ito 2ity 2itz 3ug2 4i22 4wkq 5y7z 5y80

>  <indicationDB>  (434) 


>  <uniprotId>  (434) 


>  <indicationG2P>  (434) 
None

>  <MW>  (434) 
446.2

>  <HBA>  (434) 
7

>  <HBD>  (434) 
1

>  <NRB>  (434) 
8

>  <TPSA>  (434) 
68.7

>  <LogP>  (434) 
4.3

>  <RoF>  (434) 
0

>  <Melting point>  (434) 
nan

>  <Targets>  (434) 
EGFR

>  <Kinase families>  (434) 
Tyr

>  <FDA_approved>  (434) 
Y

$$$$
Dabrafenib
     RDKit          2D

 35 38  0  0  0  0  0  0  0  0999 V2000
   -6.2980    2.8387    0.0000 C   0  0  0  0  0  0  0  0  0  0  0  0
   -5.0085    3.6050    0.0000 C   0  0  0  0  0  0  0  0  0  0  0  0
   -3.7190    4.3713    0.0000 C   0  0  0  0  0  0  0  0  0  0  0  0
   -5.7748    4.8945    0.0000 C   0  0  0  0  0  0  0  0  0  0  0  0
   -4.2422    2.3155    0.0000 C   0  0  0  0  0  0  0  0  0  0  0  0
   -2.7486    2.1775    0.0000 N   0  0  0  0  0  0  0  0  0  0  0  0
   -2.4183    0.7143    0.0000 C   0  0  0  0  0  0  0  0  0  0  0  0
   -3.7078   -0.0520    0.0000 C   0  0  0  0  0  0  0  0  0  0  0  0
   -4.8350    0.9376    0.0000 S   0  0  0  0  0  0  0  0  0  0  0  0
   -3.8458   -1.5456    0.0000 C   0  0  0  0  0  0  0  0  0  0  0  0
   -2.6213   -2.4120    0.0000 C   0  0  0  0  0  0  0  0  0  0  0  0
   -2.7593   -3.9056    0.0000 C   0  0  0  0  0  0  0  0  0  0  0  0
   -4.1219   -4.5329    0.0000 N   0  0  0  0  0  0  0  0  0  0  0  0
   -5.3464   -3.6666    0.0000 C   0  0  0  0  0  0  0  0  0  0  0  0
   -5.2084   -2.1729    0.0000 N   0  0  0  0  0  0  0  0  0  0  0  0
   -6.7089   -4.2939    0.0000 N   0  0  0  0  0  0  0  0  0  0  0  0
   -1.0404    0.1214    0.0000 C   0  0  0  0  0  0  0  0  0  0  0  0
   -0.8649   -1.3682    0.0000 C   0  0  0  0  0  0  0  0  0  0  0  0
    0.5130   -1.9611    0.0000 C   0  0  0  0  0  0  0  0  0  0  0  0
    1.7154   -1.0642    0.0000 C   0  0  0  0  0  0  0  0  0  0  0  0
    1.5398    0.4255    0.0000 C   0  0  0  0  0  0  0  0  0  0  0  0
    0.1619    1.0183    0.0000 C   0  0  0  0  0  0  0  0  0  0  0  0
   -0.0136    2.5080    0.0000 F   0  0  0  0  0  0  0  0  0  0  0  0
    2.7422    1.3224    0.0000 N   0  0  0  0  0  0  0  0  0  0  0  0
    4.1200    0.7295    0.0000 S   0  0  0  0  0  0  0  0  0  0  0  0
    3.5272   -0.6484    0.0000 O   0  0  0  0  0  0  0  0  0  0  0  0
    4.7129    2.1074    0.0000 O   0  0  0  0  0  0  0  0  0  0  0  0
    5.4979    0.1367    0.0000 C   0  0  0  0  0  0  0  0  0  0  0  0
    5.6735   -1.3530    0.0000 C   0  0  0  0  0  0  0  0  0  0  0  0
    7.0513   -1.9458    0.0000 C   0  0  0  0  0  0  0  0  0  0  0  0
    8.2537   -1.0489    0.0000 C   0  0  0  0  0  0  0  0  0  0  0  0
    8.0781    0.4407    0.0000 C   0  0  0  0  0  0  0  0  0  0  0  0
    6.7003    1.0336    0.0000 C   0  0  0  0  0  0  0  0  0  0  0  0
    6.5247    2.5233    0.0000 F   0  0  0  0  0  0  0  0  0  0  0  0
    4.4711   -2.2499    0.0000 F   0  0  0  0  0  0  0  0  0  0  0  0
  1  2  1  0
  2  3  1  0
  2  4  1  0
  2  5  1  0
  5  6  2  0
  6  7  1  0
  7  8  2  0
  8  9  1  0
  8 10  1  0
 10 11  2  0
 11 12  1  0
 12 13  2  0
 13 14  1  0
 14 15  2  0
 14 16  1  0
  7 17  1  0
 17 18  2  0
 18 19  1  0
 19 20  2  0
 20 21  1  0
 21 22  2  0
 22 23  1  0
 21 24  1  0
 24 25  1  0
 25 26  2  0
 25 27  2  0
 25 28  1  0
 28 29  2  0
 29 30  1  0
 30 31  2  0
 31 32  1  0
 32 33  2  0
 33 34  1  0
 29 35  1  0
  9  5  1  0
 15 10  1  0
 22 17  1  0
 33 28  1  0
M  END
>  <BrandName>  (435) 
Tafinlar

>  <Applicants>  (435) 
GlaxoSmithKline

>  <CHEMBL_ID>  (435) 
CHEMBL2028663

>  <Canonical_Smiles>  (435) 
CC(C)(C)c1nc(c(s1)c2ccnc(n2)N)c3cccc(c3F)NS(=O)(=O)c4c(cccc4F)F

>  <Chirality>  (435) 
Achiral Molecule

>  <First_Approval>  (435) 
2013

>  <Phase>  (435) 
4.0

>  <SC_Patent>  (435) 
US-7994185-B2

>  <Synonyms>  (435) 
DABRAFENIB | GSK-2118436 | GSK-2118436A | GSK2118436 | GSK2118436A | TAFINLAR

>  <Withdrawn>  (435) 
{'', 'Study NCT02915666 in United States was Withdrawn during PHASE1 because No subjects consented for enrollment on this study', 'Study NCT02143050 in United States was Withdrawn during PHASE1 because No participant enrollment', 'Study NCT03972046 in United States was Withdrawn during PHASE2 because Principal investigator leaving study site; no replacement PI will be sought', 'Study NCT04739566 in Russian Federation was Withdrawn during PHASE2 because Lack of funding', 'Study NCT02447939 in unknown country was Withdrawn during PHASE1 because Change in strategy', 'Study NCT03794297 in United States was Withdrawn during PHASE2 because Inadequate accrual rate', 'Study NCT05299580 in Italy was Withdrawn during PHASE2 because lack of enrollment', 'Study NCT02672358 in unknown country was Withdrawn during PHASE2 because Company Decision', 'Study NCT02357732 in unknown country was Withdrawn during PHASE1 because PI decided not to proceed'}

>  <Indications>  (435) 
Dabrafenib is indicated for the treatment of patients with unresectable or metastatic melanoma with BRAF V600E mutation as detected by an FDA-approved test.

>  <Type>  (435) 
1.5

>  <targets_id>  (435) 
P15056|P04049|P57059|Q8NG66|P53667

>  <Inchi>  (435) 
InChI=1S/C23H20F3N5O2S2/c1-23(2,3)21-30-18(19(34-21)16-10-11-28-22(27)29-16)12-6-4-9-15(17(12)26)31-35(32,33)20-13(24)7-5-8-14(20)25/h4-11,31H,1-3H3,(H2,27,28,29)

>  <stdInchikey>  (435) 
BFSMGDJOXZAERB-UHFFFAOYSA-N

>  <csid>  (435) 
25948204

>  <Links>  (435) 
|http://www.chemspider.com/Chemical-Structure.25948204.html|https://www.ebi.ac.uk/chembldb/compound/inspect/CHEMBL2028663|https://pubchem.ncbi.nlm.nih.gov/compound/44462760|https://go.drugbank.com/drugs/DB08912|https://www.rcsb.org/ligand/P06|https://www.ebi.ac.uk/pdbe-srv/pdbechem/chemicalCompound/show/P06|https://www.guidetopharmacology.org/GRAC/LigandDisplayForward?6494|https://zinc15.docking.org/substances/ZINC000068153186|https://precision.fda.gov/uniisearch/srs/unii/QGP4HA4G1B|https://www.bindingdb.org/bind/chemsearch/marvin/MolStructure.jsp?monomerid=50428286

>  <LinkName>  (435) 
|ChemSpider|ChEMBL|PubChem|DrugBank|RCSB|PDBe|Guide to Pharmacology|ZINC|FDA SRS|BindingDB

>  <lig_pdb_ID>  (435) 
P06

>  <pdb_IDs>  (435) 
4xv2 5csw 5hie 6hj2 6v2u 7riv

>  <indicationDB>  (435) 


>  <uniprotId>  (435) 


>  <indicationG2P>  (435) 
None

>  <MW>  (435) 
519.1

>  <HBA>  (435) 
7

>  <HBD>  (435) 
2

>  <NRB>  (435) 
5

>  <TPSA>  (435) 
110.9

>  <LogP>  (435) 
5.4

>  <RoF>  (435) 
2

>  <Melting point>  (435) 
nan

>  <Targets>  (435) 
BRAF; RAF1; SIK1; NEK11; LIMK1

>  <Kinase families>  (435) 
CAMK<br>NEK<br>TKL

>  <FDA_approved>  (435) 
Y

$$$$
